

         NASA-GLENN CHEMICAL EQUILIBRIUM PROGRAM CEA2, FEBRUARY 5, 2004
                   BY  BONNIE MCBRIDE AND SANFORD GORDON
      REFS: NASA RP-1311, PART I, 1994 AND NASA RP-1311, PART II, 1996

 *******************************************************************************

  
 ### CEA analysis performed on Fri 28-May-2021 11:25:13
  
 # Problem Type: "Assigned Enthalpy and Pressure"
  
 prob case=_______________3078 hp
  
 # Pressure (15 values):
 p,bar= 10, 11, 12, 13, 14, 15, 16, 17, 18, 19, 20, 21, 22, 23, 24
  
 # Oxidizer/Fuel Wt. ratio (12 values):
 o/f= 2.3, 2.31, 2.32, 2.33, 2.34, 2.35, 2.36, 2.37, 2.38, 2.39, 2.4, 2.41
  
 # You selected the following fuels and oxidizers:
 reac
 fuel RP-1              wt%=100.0000
 oxid O2(L)             wt%=100.0000
  
 # You selected these options for output:
 # short version of output
 output short
 # Proportions of any products will be expressed as Mass Fractions.
 output massf
 # Heat will be expressed as siunits
 output siunits
  
 # Input prepared by this script:/var/www/sites/cearun.grc.nasa.gov/cgi-bin/CEARU
 N/prepareInputFile.cgi
  
 ### IMPORTANT:  The following line is the end of your CEA input file!
 end

         THERMODYNAMIC EQUILIBRIUM COMBUSTION PROPERTIES AT ASSIGNED

                                   PRESSURES

 CASE = _______________

             REACTANT                    WT FRACTION      ENERGY      TEMP
                                          (SEE NOTE)     KJ/KG-MOL      K  
 FUEL        RP-1                         1.0000000    -24717.700    298.150
 OXIDANT     O2(L)                        1.0000000    -12979.000     90.170

 O/F=    2.30000  %FUEL= 30.303030  R,EQ.RATIO= 1.480724  PHI,EQ.RATIO= 1.480724

 THERMODYNAMIC PROPERTIES

 P, BAR            10.000   11.000   12.000   13.000   14.000   15.000   16.000   17.000
 T, K             3337.00  3348.88  3359.71  3369.68  3378.89  3387.47  3395.48  3403.00
 RHO, KG/CU M    7.8728-1 8.6386-1 9.4028-1 1.0165 0 1.0927 0 1.1686 0 1.2445 0 1.3203 0
 H, KJ/KG         -818.62  -818.62  -818.62  -818.62  -818.62  -818.62  -818.62  -818.62
 U, KJ/KG        -2088.82 -2091.97 -2094.84 -2097.47 -2099.90 -2102.16 -2104.26 -2106.23
 G, KJ/KG        -41792.6 -41817.0 -41838.6 -41857.8 -41875.0 -41890.6 -41904.7 -41917.6
 S, KJ/(KG)(K)    12.2787  12.2424  12.2093  12.1790  12.1508  12.1247  12.1002  12.0773

 M, (1/n)          21.844   21.867   21.888   21.908   21.926   21.943   21.959   21.974
 (dLV/dLP)t      -1.03664 -1.03606 -1.03554 -1.03506 -1.03461 -1.03420 -1.03381 -1.03344
 (dLV/dLT)p        1.6796   1.6669   1.6554   1.6449   1.6352   1.6262   1.6179   1.6100
 Cp, KJ/(KG)(K)    6.9247   6.8160   6.7180   6.6289   6.5472   6.4720   6.4022   6.3372
 GAMMAs            1.1343   1.1350   1.1356   1.1362   1.1367   1.1372   1.1377   1.1381
 SON VEL,M/SEC     1200.3   1202.2   1203.9   1205.4   1206.8   1208.1   1209.4   1210.5

 MASS FRACTIONS

 *CO              0.46735  0.46711  0.46688  0.46667  0.46648  0.46629  0.46611  0.46595
 *CO2             0.21988  0.22026  0.22061  0.22094  0.22125  0.22154  0.22181  0.22208
 COOH             0.00001  0.00001  0.00001  0.00001  0.00001  0.00001  0.00001  0.00001
 *H               0.00205  0.00201  0.00197  0.00194  0.00191  0.00188  0.00185  0.00183
 HCO              0.00001  0.00001  0.00001  0.00001  0.00002  0.00002  0.00002  0.00002
 HO2              0.00003  0.00003  0.00003  0.00003  0.00004  0.00004  0.00004  0.00004
 *H2              0.01127  0.01125  0.01123  0.01121  0.01120  0.01118  0.01117  0.01116
 H2O              0.24202  0.24271  0.24334  0.24393  0.24447  0.24498  0.24546  0.24590
 H2O2             0.00000  0.00000  0.00000  0.00000  0.00000  0.00000  0.00000  0.00001
 *O               0.00699  0.00681  0.00664  0.00649  0.00635  0.00622  0.00610  0.00599
 *OH              0.03736  0.03706  0.03678  0.03652  0.03627  0.03604  0.03582  0.03561
 *O2              0.01303  0.01274  0.01247  0.01223  0.01200  0.01180  0.01160  0.01142

  * THERMODYNAMIC PROPERTIES FITTED TO 20000.K

 NOTE. WEIGHT FRACTION OF FUEL IN TOTAL FUELS AND OF OXIDANT IN TOTAL OXIDANTS

         THERMODYNAMIC EQUILIBRIUM COMBUSTION PROPERTIES AT ASSIGNED

                                   PRESSURES

 CASE = _______________

             REACTANT                    WT FRACTION      ENERGY      TEMP
                                          (SEE NOTE)     KJ/KG-MOL      K  
 FUEL        RP-1                         1.0000000    -24717.700    298.150
 OXIDANT     O2(L)                        1.0000000    -12979.000     90.170

 O/F=    2.30000  %FUEL= 30.303030  R,EQ.RATIO= 1.480724  PHI,EQ.RATIO= 1.480724

 THERMODYNAMIC PROPERTIES

 P, BAR            18.000   19.000   20.000   21.000   22.000   23.000   24.000
 T, K             3410.08  3416.77  3423.11  3429.13  3434.87  3440.35  3445.58
 RHO, KG/CU M    1.3959 0 1.4715 0 1.5470 0 1.6223 0 1.6976 0 1.7729 0 1.8480 0
 H, KJ/KG         -818.62  -818.62  -818.62  -818.62  -818.62  -818.62  -818.62
 U, KJ/KG        -2108.09 -2109.83 -2111.49 -2113.06 -2114.55 -2115.97 -2117.33
 G, KJ/KG        -41929.4 -41940.3 -41950.2 -41959.5 -41968.0 -41975.9 -41983.3
 S, KJ/(KG)(K)    12.0557  12.0352  12.0159  11.9974  11.9799  11.9631  11.9471

 M, (1/n)          21.988   22.002   22.014   22.026   22.038   22.049   22.059
 (dLV/dLP)t      -1.03309 -1.03277 -1.03246 -1.03216 -1.03188 -1.03162 -1.03136
 (dLV/dLT)p        1.6027   1.5958   1.5892   1.5830   1.5771   1.5715   1.5661
 Cp, KJ/(KG)(K)    6.2765   6.2195   6.1659   6.1152   6.0672   6.0217   5.9783
 GAMMAs            1.1385   1.1389   1.1393   1.1396   1.1400   1.1403   1.1406
 SON VEL,M/SEC     1211.6   1212.7   1213.6   1214.6   1215.4   1216.3   1217.1

 MASS FRACTIONS

 *CO              0.46579  0.46563  0.46549  0.46535  0.46521  0.46508  0.46496
 *CO2             0.22232  0.22256  0.22279  0.22301  0.22322  0.22342  0.22361
 COOH             0.00001  0.00001  0.00001  0.00001  0.00001  0.00001  0.00002
 *H               0.00181  0.00179  0.00177  0.00175  0.00173  0.00171  0.00169
 HCO              0.00002  0.00002  0.00002  0.00002  0.00002  0.00002  0.00002
 HO2              0.00004  0.00004  0.00004  0.00004  0.00004  0.00004  0.00004
 *H2              0.01114  0.01113  0.01112  0.01111  0.01110  0.01109  0.01108
 H2O              0.24633  0.24673  0.24711  0.24747  0.24781  0.24814  0.24846
 H2O2             0.00001  0.00001  0.00001  0.00001  0.00001  0.00001  0.00001
 *O               0.00589  0.00579  0.00570  0.00561  0.00552  0.00545  0.00537
 *OH              0.03540  0.03521  0.03502  0.03484  0.03467  0.03451  0.03434
 *O2              0.01125  0.01109  0.01093  0.01079  0.01065  0.01052  0.01039

  * THERMODYNAMIC PROPERTIES FITTED TO 20000.K

 NOTE. WEIGHT FRACTION OF FUEL IN TOTAL FUELS AND OF OXIDANT IN TOTAL OXIDANTS

         THERMODYNAMIC EQUILIBRIUM COMBUSTION PROPERTIES AT ASSIGNED

                                   PRESSURES

 CASE = _______________

             REACTANT                    WT FRACTION      ENERGY      TEMP
                                          (SEE NOTE)     KJ/KG-MOL      K  
 FUEL        RP-1                         1.0000000    -24717.700    298.150
 OXIDANT     O2(L)                        1.0000000    -12979.000     90.170

 O/F=    2.31000  %FUEL= 30.211480  R,EQ.RATIO= 1.474314  PHI,EQ.RATIO= 1.474314

 THERMODYNAMIC PROPERTIES

 P, BAR            10.000   11.000   12.000   13.000   14.000   15.000   16.000   17.000
 T, K             3340.10  3352.05  3362.96  3372.98  3382.26  3390.89  3398.96  3406.53
 RHO, KG/CU M    7.8794-1 8.6458-1 9.4104-1 1.0174 0 1.0935 0 1.1696 0 1.2455 0 1.3213 0
 H, KJ/KG         -817.38  -817.38  -817.38  -817.38  -817.38  -817.38  -817.38  -817.38
 U, KJ/KG        -2086.51 -2089.68 -2092.56 -2095.20 -2097.64 -2099.91 -2102.02 -2104.00
 G, KJ/KG        -41791.1 -41816.3 -41838.7 -41858.7 -41876.7 -41892.9 -41907.7 -41921.2
 S, KJ/(KG)(K)    12.2672  12.2310  12.1980  12.1677  12.1396  12.1135  12.0891  12.0662

 M, (1/n)          21.882   21.906   21.927   21.947   21.966   21.983   21.999   22.014
 (dLV/dLP)t      -1.03727 -1.03669 -1.03617 -1.03568 -1.03524 -1.03482 -1.03443 -1.03406
 (dLV/dLT)p        1.6908   1.6781   1.6666   1.6560   1.6463   1.6373   1.6289   1.6210
 Cp, KJ/(KG)(K)    6.9913   6.8820   6.7835   6.6939   6.6119   6.5362   6.4660   6.4007
 GAMMAs            1.1339   1.1346   1.1352   1.1357   1.1363   1.1368   1.1372   1.1376
 SON VEL,M/SEC     1199.6   1201.5   1203.2   1204.7   1206.1   1207.4   1208.7   1209.8

 MASS FRACTIONS

 *CO              0.46445  0.46420  0.46396  0.46374  0.46354  0.46334  0.46316  0.46299
 *CO2             0.22156  0.22195  0.22232  0.22266  0.22298  0.22328  0.22357  0.22384
 COOH             0.00001  0.00001  0.00001  0.00001  0.00001  0.00001  0.00001  0.00001
 *H               0.00205  0.00201  0.00197  0.00194  0.00191  0.00188  0.00185  0.00183
 HCO              0.00001  0.00001  0.00001  0.00001  0.00002  0.00002  0.00002  0.00002
 HO2              0.00003  0.00003  0.00004  0.00004  0.00004  0.00004  0.00004  0.00004
 *H2              0.01111  0.01109  0.01107  0.01105  0.01103  0.01102  0.01100  0.01099
 H2O              0.24201  0.24270  0.24334  0.24393  0.24447  0.24498  0.24546  0.24591
 H2O2             0.00000  0.00000  0.00000  0.00000  0.00000  0.00000  0.00001  0.00001
 *O               0.00720  0.00702  0.00685  0.00669  0.00655  0.00642  0.00630  0.00618
 *OH              0.03795  0.03766  0.03738  0.03713  0.03688  0.03665  0.03643  0.03622
 *O2              0.01362  0.01332  0.01305  0.01280  0.01257  0.01235  0.01215  0.01196

  * THERMODYNAMIC PROPERTIES FITTED TO 20000.K

 NOTE. WEIGHT FRACTION OF FUEL IN TOTAL FUELS AND OF OXIDANT IN TOTAL OXIDANTS

         THERMODYNAMIC EQUILIBRIUM COMBUSTION PROPERTIES AT ASSIGNED

                                   PRESSURES

 CASE = _______________

             REACTANT                    WT FRACTION      ENERGY      TEMP
                                          (SEE NOTE)     KJ/KG-MOL      K  
 FUEL        RP-1                         1.0000000    -24717.700    298.150
 OXIDANT     O2(L)                        1.0000000    -12979.000     90.170

 O/F=    2.31000  %FUEL= 30.211480  R,EQ.RATIO= 1.474314  PHI,EQ.RATIO= 1.474314

 THERMODYNAMIC PROPERTIES

 P, BAR            18.000   19.000   20.000   21.000   22.000   23.000   24.000
 T, K             3413.66  3420.40  3426.79  3432.86  3438.64  3444.16  3449.44
 RHO, KG/CU M    1.3970 0 1.4726 0 1.5481 0 1.6235 0 1.6989 0 1.7741 0 1.8493 0
 H, KJ/KG         -817.38  -817.38  -817.38  -817.38  -817.38  -817.38  -817.38
 U, KJ/KG        -2105.86 -2107.61 -2109.27 -2110.85 -2112.35 -2113.78 -2115.14
 G, KJ/KG        -41933.6 -41945.0 -41955.5 -41965.2 -41974.3 -41982.7 -41990.5
 S, KJ/(KG)(K)    12.0446  12.0242  12.0049  11.9865  11.9689  11.9522  11.9362

 M, (1/n)          22.028   22.042   22.054   22.067   22.078   22.089   22.100
 (dLV/dLP)t      -1.03372 -1.03339 -1.03308 -1.03278 -1.03250 -1.03223 -1.03198
 (dLV/dLT)p        1.6136   1.6066   1.6001   1.5938   1.5879   1.5822   1.5768
 Cp, KJ/(KG)(K)    6.3396   6.2823   6.2283   6.1773   6.1290   6.0832   6.0396
 GAMMAs            1.1381   1.1384   1.1388   1.1392   1.1395   1.1398   1.1401
 SON VEL,M/SEC     1210.9   1212.0   1212.9   1213.9   1214.8   1215.6   1216.4

 MASS FRACTIONS

 *CO              0.46282  0.46266  0.46251  0.46236  0.46222  0.46209  0.46196
 *CO2             0.22410  0.22435  0.22459  0.22481  0.22503  0.22524  0.22544
 COOH             0.00001  0.00001  0.00001  0.00001  0.00001  0.00002  0.00002
 *H               0.00181  0.00179  0.00177  0.00175  0.00173  0.00171  0.00170
 HCO              0.00002  0.00002  0.00002  0.00002  0.00002  0.00002  0.00002
 HO2              0.00004  0.00004  0.00004  0.00004  0.00004  0.00004  0.00004
 *H2              0.01098  0.01097  0.01095  0.01094  0.01093  0.01092  0.01091
 H2O              0.24633  0.24673  0.24711  0.24748  0.24782  0.24816  0.24847
 H2O2             0.00001  0.00001  0.00001  0.00001  0.00001  0.00001  0.00001
 *O               0.00608  0.00598  0.00588  0.00579  0.00571  0.00563  0.00555
 *OH              0.03602  0.03582  0.03564  0.03546  0.03529  0.03512  0.03496
 *O2              0.01179  0.01162  0.01146  0.01132  0.01117  0.01104  0.01091

  * THERMODYNAMIC PROPERTIES FITTED TO 20000.K

 NOTE. WEIGHT FRACTION OF FUEL IN TOTAL FUELS AND OF OXIDANT IN TOTAL OXIDANTS

         THERMODYNAMIC EQUILIBRIUM COMBUSTION PROPERTIES AT ASSIGNED

                                   PRESSURES

 CASE = _______________

             REACTANT                    WT FRACTION      ENERGY      TEMP
                                          (SEE NOTE)     KJ/KG-MOL      K  
 FUEL        RP-1                         1.0000000    -24717.700    298.150
 OXIDANT     O2(L)                        1.0000000    -12979.000     90.170

 O/F=    2.32000  %FUEL= 30.120482  R,EQ.RATIO= 1.467960  PHI,EQ.RATIO= 1.467960

 THERMODYNAMIC PROPERTIES

 P, BAR            10.000   11.000   12.000   13.000   14.000   15.000   16.000   17.000
 T, K             3343.10  3355.12  3366.09  3376.18  3385.52  3394.21  3402.33  3409.95
 RHO, KG/CU M    7.8861-1 8.6530-1 9.4182-1 1.0182 0 1.0944 0 1.1705 0 1.2465 0 1.3223 0
 H, KJ/KG         -816.14  -816.14  -816.14  -816.14  -816.14  -816.14  -816.14  -816.14
 U, KJ/KG        -2084.19 -2087.37 -2090.26 -2092.91 -2095.36 -2097.64 -2099.76 -2101.75
 G, KJ/KG        -41788.4 -41814.5 -41837.7 -41858.4 -41877.0 -41894.0 -41909.4 -41923.5
 S, KJ/(KG)(K)    12.2558  12.2196  12.1867  12.1564  12.1284  12.1023  12.0780  12.0551

 M, (1/n)          21.920   21.944   21.966   21.986   22.005   22.022   22.038   22.053
 (dLV/dLP)t      -1.03789 -1.03731 -1.03679 -1.03630 -1.03586 -1.03544 -1.03505 -1.03468
 (dLV/dLT)p        1.7020   1.6893   1.6777   1.6671   1.6573   1.6482   1.6398   1.6319
 Cp, KJ/(KG)(K)    7.0570   6.9472   6.8482   6.7582   6.6757   6.5996   6.5291   6.4634
 GAMMAs            1.1335   1.1342   1.1348   1.1353   1.1359   1.1363   1.1368   1.1372
 SON VEL,M/SEC     1198.9   1200.8   1202.4   1204.0   1205.4   1206.7   1208.0   1209.1

 MASS FRACTIONS

 *CO              0.46157  0.46131  0.46106  0.46084  0.46062  0.46042  0.46023  0.46005
 *CO2             0.22322  0.22363  0.22401  0.22436  0.22470  0.22501  0.22531  0.22559
 COOH             0.00001  0.00001  0.00001  0.00001  0.00001  0.00001  0.00001  0.00001
 *H               0.00205  0.00201  0.00197  0.00194  0.00191  0.00188  0.00185  0.00183
 HCO              0.00001  0.00001  0.00001  0.00001  0.00001  0.00002  0.00002  0.00002
 HO2              0.00003  0.00004  0.00004  0.00004  0.00004  0.00004  0.00004  0.00004
 *H2              0.01095  0.01093  0.01091  0.01089  0.01087  0.01086  0.01084  0.01083
 H2O              0.24198  0.24268  0.24332  0.24391  0.24446  0.24497  0.24545  0.24590
 H2O2             0.00000  0.00000  0.00000  0.00000  0.00000  0.00000  0.00001  0.00001
 *O               0.00742  0.00723  0.00705  0.00690  0.00675  0.00662  0.00649  0.00638
 *OH              0.03854  0.03825  0.03798  0.03772  0.03748  0.03725  0.03703  0.03682
 *O2              0.01422  0.01391  0.01363  0.01338  0.01314  0.01292  0.01272  0.01252

  * THERMODYNAMIC PROPERTIES FITTED TO 20000.K

 NOTE. WEIGHT FRACTION OF FUEL IN TOTAL FUELS AND OF OXIDANT IN TOTAL OXIDANTS

         THERMODYNAMIC EQUILIBRIUM COMBUSTION PROPERTIES AT ASSIGNED

                                   PRESSURES

 CASE = _______________

             REACTANT                    WT FRACTION      ENERGY      TEMP
                                          (SEE NOTE)     KJ/KG-MOL      K  
 FUEL        RP-1                         1.0000000    -24717.700    298.150
 OXIDANT     O2(L)                        1.0000000    -12979.000     90.170

 O/F=    2.32000  %FUEL= 30.120482  R,EQ.RATIO= 1.467960  PHI,EQ.RATIO= 1.467960

 THERMODYNAMIC PROPERTIES

 P, BAR            18.000   19.000   20.000   21.000   22.000   23.000   24.000
 T, K             3417.13  3423.92  3430.35  3436.47  3442.29  3447.85  3453.17
 RHO, KG/CU M    1.3981 0 1.4737 0 1.5493 0 1.6248 0 1.7002 0 1.7755 0 1.8507 0
 H, KJ/KG         -816.14  -816.14  -816.14  -816.14  -816.14  -816.14  -816.14
 U, KJ/KG        -2103.61 -2105.38 -2107.05 -2108.63 -2110.14 -2111.57 -2112.94
 G, KJ/KG        -41936.4 -41948.4 -41959.4 -41969.6 -41979.2 -41988.1 -41996.4
 S, KJ/(KG)(K)    12.0336  12.0132  11.9939  11.9755  11.9580  11.9413  11.9254

 M, (1/n)          22.068   22.081   22.094   22.106   22.118   22.129   22.140
 (dLV/dLP)t      -1.03433 -1.03401 -1.03369 -1.03340 -1.03312 -1.03285 -1.03259
 (dLV/dLT)p        1.6245   1.6175   1.6108   1.6046   1.5986   1.5929   1.5875
 Cp, KJ/(KG)(K)    6.4020   6.3444   6.2901   6.2388   6.1902   6.1441   6.1003
 GAMMAs            1.1376   1.1380   1.1384   1.1387   1.1390   1.1394   1.1397
 SON VEL,M/SEC     1210.2   1211.3   1212.2   1213.2   1214.1   1214.9   1215.7

 MASS FRACTIONS

 *CO              0.45988  0.45971  0.45955  0.45940  0.45926  0.45912  0.45898
 *CO2             0.22586  0.22612  0.22637  0.22660  0.22683  0.22705  0.22726
 COOH             0.00001  0.00001  0.00001  0.00001  0.00001  0.00002  0.00002
 *H               0.00181  0.00179  0.00177  0.00175  0.00173  0.00171  0.00170
 HCO              0.00002  0.00002  0.00002  0.00002  0.00002  0.00002  0.00002
 HO2              0.00004  0.00004  0.00004  0.00004  0.00004  0.00004  0.00004
 *H2              0.01082  0.01080  0.01079  0.01078  0.01077  0.01076  0.01075
 H2O              0.24632  0.24672  0.24711  0.24747  0.24782  0.24815  0.24847
 H2O2             0.00001  0.00001  0.00001  0.00001  0.00001  0.00001  0.00001
 *O               0.00627  0.00617  0.00607  0.00598  0.00590  0.00581  0.00574
 *OH              0.03662  0.03643  0.03625  0.03607  0.03590  0.03574  0.03558
 *O2              0.01234  0.01217  0.01201  0.01186  0.01171  0.01157  0.01144

  * THERMODYNAMIC PROPERTIES FITTED TO 20000.K

 NOTE. WEIGHT FRACTION OF FUEL IN TOTAL FUELS AND OF OXIDANT IN TOTAL OXIDANTS

         THERMODYNAMIC EQUILIBRIUM COMBUSTION PROPERTIES AT ASSIGNED

                                   PRESSURES

 CASE = _______________

             REACTANT                    WT FRACTION      ENERGY      TEMP
                                          (SEE NOTE)     KJ/KG-MOL      K  
 FUEL        RP-1                         1.0000000    -24717.700    298.150
 OXIDANT     O2(L)                        1.0000000    -12979.000     90.170

 O/F=    2.33000  %FUEL= 30.030030  R,EQ.RATIO= 1.461659  PHI,EQ.RATIO= 1.461659

 THERMODYNAMIC PROPERTIES

 P, BAR            10.000   11.000   12.000   13.000   14.000   15.000   16.000   17.000
 T, K             3346.00  3358.09  3369.13  3379.28  3388.67  3397.41  3405.59  3413.26
 RHO, KG/CU M    7.8929-1 8.6604-1 9.4262-1 1.0190 0 1.0953 0 1.1715 0 1.2475 0 1.3234 0
 H, KJ/KG         -814.90  -814.90  -814.90  -814.90  -814.90  -814.90  -814.90  -814.90
 U, KJ/KG        -2081.86 -2085.05 -2087.95 -2090.61 -2093.07 -2095.35 -2097.48 -2099.48
 G, KJ/KG        -41784.6 -41811.5 -41835.4 -41856.8 -41876.2 -41893.7 -41909.7 -41924.4
 S, KJ/(KG)(K)    12.2444  12.2083  12.1754  12.1452  12.1172  12.0912  12.0669  12.0441

 M, (1/n)          21.958   21.982   22.004   22.025   22.043   22.061   22.077   22.093
 (dLV/dLP)t      -1.03850 -1.03793 -1.03740 -1.03692 -1.03647 -1.03605 -1.03566 -1.03529
 (dLV/dLT)p        1.7131   1.7003   1.6886   1.6780   1.6682   1.6591   1.6506   1.6427
 Cp, KJ/(KG)(K)    7.1217   7.0115   6.9121   6.8216   6.7387   6.6623   6.5914   6.5254
 GAMMAs            1.1332   1.1338   1.1344   1.1349   1.1355   1.1359   1.1364   1.1368
 SON VEL,M/SEC     1198.2   1200.0   1201.7   1203.3   1204.7   1206.0   1207.3   1208.4

 MASS FRACTIONS

 *CO              0.45871  0.45844  0.45818  0.45795  0.45773  0.45752  0.45732  0.45713
 *CO2             0.22487  0.22529  0.22568  0.22605  0.22640  0.22673  0.22703  0.22733
 COOH             0.00001  0.00001  0.00001  0.00001  0.00001  0.00001  0.00001  0.00001
 *H               0.00204  0.00200  0.00197  0.00194  0.00191  0.00188  0.00185  0.00183
 HCO              0.00001  0.00001  0.00001  0.00001  0.00001  0.00002  0.00002  0.00002
 HO2              0.00004  0.00004  0.00004  0.00004  0.00004  0.00004  0.00004  0.00004
 *H2              0.01079  0.01077  0.01075  0.01073  0.01072  0.01070  0.01068  0.01067
 H2O              0.24194  0.24264  0.24328  0.24387  0.24442  0.24493  0.24542  0.24587
 H2O2             0.00000  0.00000  0.00000  0.00000  0.00000  0.00001  0.00001  0.00001
 *O               0.00763  0.00744  0.00726  0.00710  0.00695  0.00682  0.00669  0.00658
 *OH              0.03913  0.03884  0.03857  0.03831  0.03807  0.03785  0.03763  0.03742
 *O2              0.01483  0.01452  0.01423  0.01397  0.01373  0.01350  0.01329  0.01310

  * THERMODYNAMIC PROPERTIES FITTED TO 20000.K

 NOTE. WEIGHT FRACTION OF FUEL IN TOTAL FUELS AND OF OXIDANT IN TOTAL OXIDANTS

         THERMODYNAMIC EQUILIBRIUM COMBUSTION PROPERTIES AT ASSIGNED

                                   PRESSURES

 CASE = _______________

             REACTANT                    WT FRACTION      ENERGY      TEMP
                                          (SEE NOTE)     KJ/KG-MOL      K  
 FUEL        RP-1                         1.0000000    -24717.700    298.150
 OXIDANT     O2(L)                        1.0000000    -12979.000     90.170

 O/F=    2.33000  %FUEL= 30.030030  R,EQ.RATIO= 1.461659  PHI,EQ.RATIO= 1.461659

 THERMODYNAMIC PROPERTIES

 P, BAR            18.000   19.000   20.000   21.000   22.000   23.000   24.000
 T, K             3420.49  3427.32  3433.80  3439.96  3445.82  3451.42  3456.78
 RHO, KG/CU M    1.3992 0 1.4749 0 1.5505 0 1.6260 0 1.7015 0 1.7768 0 1.8521 0
 H, KJ/KG         -814.90  -814.90  -814.90  -814.90  -814.90  -814.90  -814.90
 U, KJ/KG        -2101.36 -2103.13 -2104.80 -2106.39 -2107.91 -2109.35 -2110.73
 G, KJ/KG        -41937.9 -41950.4 -41962.0 -41972.7 -41982.7 -41992.0 -42000.8
 S, KJ/(KG)(K)    12.0226  12.0022  11.9830  11.9646  11.9472  11.9305  11.9145

 M, (1/n)          22.107   22.121   22.134   22.146   22.158   22.169   22.180
 (dLV/dLP)t      -1.03495 -1.03462 -1.03431 -1.03401 -1.03373 -1.03346 -1.03320
 (dLV/dLT)p        1.6352   1.6282   1.6215   1.6152   1.6092   1.6035   1.5981
 Cp, KJ/(KG)(K)    6.4637   6.4057   6.3511   6.2996   6.2508   6.2044   6.1603
 GAMMAs            1.1372   1.1376   1.1379   1.1383   1.1386   1.1389   1.1392
 SON VEL,M/SEC     1209.5   1210.6   1211.5   1212.5   1213.4   1214.2   1215.0

 MASS FRACTIONS

 *CO              0.45695  0.45678  0.45662  0.45646  0.45631  0.45616  0.45603
 *CO2             0.22761  0.22788  0.22813  0.22838  0.22861  0.22884  0.22906
 COOH             0.00001  0.00001  0.00001  0.00001  0.00001  0.00002  0.00002
 *H               0.00181  0.00179  0.00177  0.00175  0.00173  0.00171  0.00170
 HCO              0.00002  0.00002  0.00002  0.00002  0.00002  0.00002  0.00002
 HO2              0.00004  0.00004  0.00004  0.00004  0.00004  0.00005  0.00005
 *H2              0.01066  0.01064  0.01063  0.01062  0.01061  0.01060  0.01059
 H2O              0.24629  0.24670  0.24708  0.24745  0.24780  0.24813  0.24845
 H2O2             0.00001  0.00001  0.00001  0.00001  0.00001  0.00001  0.00001
 *O               0.00647  0.00636  0.00626  0.00617  0.00608  0.00600  0.00592
 *OH              0.03722  0.03703  0.03685  0.03668  0.03651  0.03634  0.03619
 *O2              0.01291  0.01274  0.01257  0.01241  0.01226  0.01212  0.01199

  * THERMODYNAMIC PROPERTIES FITTED TO 20000.K

 NOTE. WEIGHT FRACTION OF FUEL IN TOTAL FUELS AND OF OXIDANT IN TOTAL OXIDANTS

         THERMODYNAMIC EQUILIBRIUM COMBUSTION PROPERTIES AT ASSIGNED

                                   PRESSURES

 CASE = _______________

             REACTANT                    WT FRACTION      ENERGY      TEMP
                                          (SEE NOTE)     KJ/KG-MOL      K  
 FUEL        RP-1                         1.0000000    -24717.700    298.150
 OXIDANT     O2(L)                        1.0000000    -12979.000     90.170

 O/F=    2.34000  %FUEL= 29.940120  R,EQ.RATIO= 1.455413  PHI,EQ.RATIO= 1.455413

 THERMODYNAMIC PROPERTIES

 P, BAR            10.000   11.000   12.000   13.000   14.000   15.000   16.000   17.000
 T, K             3348.80  3360.96  3372.06  3382.27  3391.72  3400.52  3408.74  3416.46
 RHO, KG/CU M    7.8999-1 8.6680-1 9.4343-1 1.0199 0 1.0962 0 1.1724 0 1.2485 0 1.3245 0
 H, KJ/KG         -813.68  -813.68  -813.68  -813.68  -813.68  -813.68  -813.68  -813.68
 U, KJ/KG        -2079.52 -2082.72 -2085.63 -2088.30 -2090.77 -2093.06 -2095.20 -2097.20
 G, KJ/KG        -41779.6 -41807.3 -41832.0 -41854.1 -41874.1 -41892.3 -41908.9 -41924.1
 S, KJ/(KG)(K)    12.2330  12.1970  12.1642  12.1340  12.1061  12.0801  12.0558  12.0330

 M, (1/n)          21.996   22.020   22.043   22.063   22.082   22.099   22.116   22.131
 (dLV/dLP)t      -1.03911 -1.03854 -1.03801 -1.03753 -1.03708 -1.03666 -1.03627 -1.03590
 (dLV/dLT)p        1.7240   1.7112   1.6995   1.6888   1.6790   1.6698   1.6613   1.6534
 Cp, KJ/(KG)(K)    7.1855   7.0748   6.9750   6.8841   6.8009   6.7241   6.6529   6.5866
 GAMMAs            1.1328   1.1334   1.1340   1.1346   1.1351   1.1355   1.1360   1.1364
 SON VEL,M/SEC     1197.5   1199.3   1201.0   1202.6   1204.0   1205.3   1206.6   1207.7

 MASS FRACTIONS

 *CO              0.45587  0.45559  0.45533  0.45508  0.45485  0.45464  0.45443  0.45424
 *CO2             0.22650  0.22693  0.22734  0.22772  0.22808  0.22842  0.22874  0.22905
 COOH             0.00001  0.00001  0.00001  0.00001  0.00001  0.00001  0.00001  0.00001
 *H               0.00204  0.00200  0.00197  0.00193  0.00191  0.00188  0.00185  0.00183
 HCO              0.00001  0.00001  0.00001  0.00001  0.00001  0.00002  0.00002  0.00002
 HO2              0.00004  0.00004  0.00004  0.00004  0.00004  0.00004  0.00004  0.00004
 *H2              0.01064  0.01062  0.01060  0.01058  0.01056  0.01054  0.01053  0.01051
 H2O              0.24189  0.24259  0.24323  0.24382  0.24437  0.24489  0.24537  0.24582
 H2O2             0.00000  0.00000  0.00000  0.00000  0.00001  0.00001  0.00001  0.00001
 *O               0.00784  0.00765  0.00747  0.00731  0.00716  0.00702  0.00689  0.00677
 *OH              0.03970  0.03942  0.03915  0.03890  0.03866  0.03843  0.03822  0.03801
 *O2              0.01546  0.01514  0.01485  0.01458  0.01433  0.01410  0.01389  0.01369

  * THERMODYNAMIC PROPERTIES FITTED TO 20000.K

 NOTE. WEIGHT FRACTION OF FUEL IN TOTAL FUELS AND OF OXIDANT IN TOTAL OXIDANTS

         THERMODYNAMIC EQUILIBRIUM COMBUSTION PROPERTIES AT ASSIGNED

                                   PRESSURES

 CASE = _______________

             REACTANT                    WT FRACTION      ENERGY      TEMP
                                          (SEE NOTE)     KJ/KG-MOL      K  
 FUEL        RP-1                         1.0000000    -24717.700    298.150
 OXIDANT     O2(L)                        1.0000000    -12979.000     90.170

 O/F=    2.34000  %FUEL= 29.940120  R,EQ.RATIO= 1.455413  PHI,EQ.RATIO= 1.455413

 THERMODYNAMIC PROPERTIES

 P, BAR            18.000   19.000   20.000   21.000   22.000   23.000   24.000
 T, K             3423.74  3430.61  3437.13  3443.33  3449.24  3454.88  3460.27
 RHO, KG/CU M    1.4003 0 1.4761 0 1.5517 0 1.6273 0 1.7028 0 1.7782 0 1.8535 0
 H, KJ/KG         -813.68  -813.68  -813.68  -813.68  -813.68  -813.68  -813.68
 U, KJ/KG        -2099.08 -2100.86 -2102.55 -2104.14 -2105.66 -2107.11 -2108.50
 G, KJ/KG        -41938.1 -41951.1 -41963.2 -41974.4 -41984.9 -41994.7 -42003.9
 S, KJ/(KG)(K)    12.0116  11.9913  11.9720  11.9538  11.9363  11.9197  11.9038

 M, (1/n)          22.146   22.160   22.173   22.185   22.197   22.209   22.220
 (dLV/dLP)t      -1.03555 -1.03522 -1.03491 -1.03462 -1.03433 -1.03406 -1.03380
 (dLV/dLT)p        1.6459   1.6388   1.6322   1.6258   1.6198   1.6141   1.6086
 Cp, KJ/(KG)(K)    6.5245   6.4663   6.4115   6.3597   6.3106   6.2640   6.2197
 GAMMAs            1.1368   1.1372   1.1375   1.1379   1.1382   1.1385   1.1388
 SON VEL,M/SEC     1208.8   1209.8   1210.8   1211.8   1212.6   1213.5   1214.3

 MASS FRACTIONS

 *CO              0.45405  0.45387  0.45370  0.45354  0.45338  0.45323  0.45309
 *CO2             0.22934  0.22961  0.22988  0.23013  0.23038  0.23061  0.23084
 COOH             0.00001  0.00001  0.00001  0.00001  0.00001  0.00002  0.00002
 *H               0.00181  0.00178  0.00176  0.00175  0.00173  0.00171  0.00170
 HCO              0.00002  0.00002  0.00002  0.00002  0.00002  0.00002  0.00002
 HO2              0.00004  0.00004  0.00005  0.00005  0.00005  0.00005  0.00005
 *H2              0.01050  0.01049  0.01047  0.01046  0.01045  0.01044  0.01043
 H2O              0.24625  0.24666  0.24704  0.24741  0.24776  0.24809  0.24842
 H2O2             0.00001  0.00001  0.00001  0.00001  0.00001  0.00001  0.00001
 *O               0.00666  0.00656  0.00646  0.00636  0.00627  0.00619  0.00611
 *OH              0.03782  0.03763  0.03745  0.03727  0.03711  0.03694  0.03679
 *O2              0.01350  0.01332  0.01315  0.01298  0.01283  0.01269  0.01255

  * THERMODYNAMIC PROPERTIES FITTED TO 20000.K

 NOTE. WEIGHT FRACTION OF FUEL IN TOTAL FUELS AND OF OXIDANT IN TOTAL OXIDANTS

         THERMODYNAMIC EQUILIBRIUM COMBUSTION PROPERTIES AT ASSIGNED

                                   PRESSURES

 CASE = _______________

             REACTANT                    WT FRACTION      ENERGY      TEMP
                                          (SEE NOTE)     KJ/KG-MOL      K  
 FUEL        RP-1                         1.0000000    -24717.700    298.150
 OXIDANT     O2(L)                        1.0000000    -12979.000     90.170

 O/F=    2.35000  %FUEL= 29.850746  R,EQ.RATIO= 1.449220  PHI,EQ.RATIO= 1.449220

 THERMODYNAMIC PROPERTIES

 P, BAR            10.000   11.000   12.000   13.000   14.000   15.000   16.000   17.000
 T, K             3351.51  3363.74  3374.90  3385.16  3394.67  3403.51  3411.79  3419.55
 RHO, KG/CU M    7.9070-1 8.6757-1 9.4426-1 1.0208 0 1.0972 0 1.1734 0 1.2496 0 1.3256 0
 H, KJ/KG         -812.46  -812.46  -812.46  -812.46  -812.46  -812.46  -812.46  -812.46
 U, KJ/KG        -2077.17 -2080.38 -2083.30 -2085.98 -2088.45 -2090.75 -2092.90 -2094.91
 G, KJ/KG        -41773.6 -41802.1 -41827.4 -41850.2 -41870.8 -41889.6 -41906.8 -41922.6
 S, KJ/(KG)(K)    12.2217  12.1857  12.1530  12.1228  12.0950  12.0690  12.0448  12.0221

 M, (1/n)          22.034   22.058   22.080   22.101   22.120   22.138   22.154   22.170
 (dLV/dLP)t      -1.03972 -1.03914 -1.03862 -1.03813 -1.03768 -1.03726 -1.03687 -1.03650
 (dLV/dLT)p        1.7348   1.7219   1.7103   1.6995   1.6897   1.6805   1.6720   1.6640
 Cp, KJ/(KG)(K)    7.2483   7.1372   7.0370   6.9458   6.8621   6.7850   6.7135   6.6469
 GAMMAs            1.1325   1.1331   1.1337   1.1342   1.1347   1.1352   1.1356   1.1360
 SON VEL,M/SEC     1196.8   1198.6   1200.3   1201.8   1203.3   1204.6   1205.8   1207.0

 MASS FRACTIONS

 *CO              0.45305  0.45276  0.45249  0.45224  0.45200  0.45178  0.45156  0.45136
 *CO2             0.22811  0.22856  0.22898  0.22938  0.22975  0.23010  0.23043  0.23075
 COOH             0.00001  0.00001  0.00001  0.00001  0.00001  0.00001  0.00001  0.00001
 *H               0.00204  0.00200  0.00197  0.00193  0.00190  0.00188  0.00185  0.00183
 HCO              0.00001  0.00001  0.00001  0.00001  0.00001  0.00002  0.00002  0.00002
 HO2              0.00004  0.00004  0.00004  0.00004  0.00004  0.00004  0.00004  0.00005
 *H2              0.01049  0.01047  0.01045  0.01043  0.01041  0.01039  0.01038  0.01036
 H2O              0.24182  0.24252  0.24317  0.24376  0.24431  0.24483  0.24531  0.24576
 H2O2             0.00000  0.00000  0.00000  0.00000  0.00001  0.00001  0.00001  0.00001
 *O               0.00806  0.00786  0.00768  0.00751  0.00736  0.00722  0.00709  0.00697
 *OH              0.04027  0.03999  0.03972  0.03948  0.03924  0.03902  0.03880  0.03860
 *O2              0.01610  0.01577  0.01548  0.01520  0.01495  0.01471  0.01449  0.01429

  * THERMODYNAMIC PROPERTIES FITTED TO 20000.K

 NOTE. WEIGHT FRACTION OF FUEL IN TOTAL FUELS AND OF OXIDANT IN TOTAL OXIDANTS

         THERMODYNAMIC EQUILIBRIUM COMBUSTION PROPERTIES AT ASSIGNED

                                   PRESSURES

 CASE = _______________

             REACTANT                    WT FRACTION      ENERGY      TEMP
                                          (SEE NOTE)     KJ/KG-MOL      K  
 FUEL        RP-1                         1.0000000    -24717.700    298.150
 OXIDANT     O2(L)                        1.0000000    -12979.000     90.170

 O/F=    2.35000  %FUEL= 29.850746  R,EQ.RATIO= 1.449220  PHI,EQ.RATIO= 1.449220

 THERMODYNAMIC PROPERTIES

 P, BAR            18.000   19.000   20.000   21.000   22.000   23.000   24.000
 T, K             3426.88  3433.80  3440.36  3446.60  3452.54  3458.22  3463.65
 RHO, KG/CU M    1.4015 0 1.4773 0 1.5530 0 1.6286 0 1.7042 0 1.7796 0 1.8550 0
 H, KJ/KG         -812.46  -812.46  -812.46  -812.46  -812.46  -812.46  -812.46
 U, KJ/KG        -2096.80 -2098.59 -2100.28 -2101.88 -2103.41 -2104.86 -2106.25
 G, KJ/KG        -41937.2 -41950.7 -41963.2 -41974.9 -41985.8 -41996.0 -42005.6
 S, KJ/(KG)(K)    12.0006  11.9804  11.9612  11.9429  11.9255  11.9089  11.8930

 M, (1/n)          22.185   22.199   22.212   22.225   22.237   22.248   22.259
 (dLV/dLP)t      -1.03616 -1.03583 -1.03551 -1.03522 -1.03493 -1.03466 -1.03440
 (dLV/dLT)p        1.6565   1.6494   1.6427   1.6363   1.6303   1.6245   1.6190
 Cp, KJ/(KG)(K)    6.5846   6.5261   6.4710   6.4190   6.3697   6.3229   6.2783
 GAMMAs            1.1364   1.1368   1.1371   1.1374   1.1378   1.1381   1.1384
 SON VEL,M/SEC     1208.1   1209.1   1210.1   1211.1   1211.9   1212.8   1213.6

 MASS FRACTIONS

 *CO              0.45117  0.45099  0.45081  0.45064  0.45048  0.45033  0.45018
 *CO2             0.23105  0.23133  0.23161  0.23187  0.23212  0.23237  0.23260
 COOH             0.00001  0.00001  0.00001  0.00001  0.00002  0.00002  0.00002
 *H               0.00180  0.00178  0.00176  0.00174  0.00173  0.00171  0.00169
 HCO              0.00002  0.00002  0.00002  0.00002  0.00002  0.00002  0.00002
 HO2              0.00005  0.00005  0.00005  0.00005  0.00005  0.00005  0.00005
 *H2              0.01035  0.01033  0.01032  0.01031  0.01030  0.01029  0.01028
 H2O              0.24619  0.24660  0.24699  0.24735  0.24770  0.24804  0.24836
 H2O2             0.00001  0.00001  0.00001  0.00001  0.00001  0.00001  0.00001
 *O               0.00686  0.00675  0.00665  0.00655  0.00646  0.00638  0.00629
 *OH              0.03840  0.03822  0.03804  0.03786  0.03770  0.03754  0.03738
 *O2              0.01409  0.01391  0.01373  0.01357  0.01341  0.01326  0.01312

  * THERMODYNAMIC PROPERTIES FITTED TO 20000.K

 NOTE. WEIGHT FRACTION OF FUEL IN TOTAL FUELS AND OF OXIDANT IN TOTAL OXIDANTS

         THERMODYNAMIC EQUILIBRIUM COMBUSTION PROPERTIES AT ASSIGNED

                                   PRESSURES

 CASE = _______________

             REACTANT                    WT FRACTION      ENERGY      TEMP
                                          (SEE NOTE)     KJ/KG-MOL      K  
 FUEL        RP-1                         1.0000000    -24717.700    298.150
 OXIDANT     O2(L)                        1.0000000    -12979.000     90.170

 O/F=    2.36000  %FUEL= 29.761905  R,EQ.RATIO= 1.443079  PHI,EQ.RATIO= 1.443079

 THERMODYNAMIC PROPERTIES

 P, BAR            10.000   11.000   12.000   13.000   14.000   15.000   16.000   17.000
 T, K             3354.13  3366.42  3377.64  3387.96  3397.52  3406.41  3414.73  3422.55
 RHO, KG/CU M    7.9142-1 8.6835-1 9.4510-1 1.0217 0 1.0981 0 1.1745 0 1.2506 0 1.3267 0
 H, KJ/KG         -811.25  -811.25  -811.25  -811.25  -811.25  -811.25  -811.25  -811.25
 U, KJ/KG        -2074.81 -2078.03 -2080.96 -2083.64 -2086.13 -2088.44 -2090.59 -2092.61
 G, KJ/KG        -41766.5 -41795.7 -41821.8 -41845.2 -41866.5 -41885.8 -41903.6 -41919.9
 S, KJ/(KG)(K)    12.2104  12.1745  12.1418  12.1117  12.0839  12.0580  12.0338  12.0111

 M, (1/n)          22.071   22.096   22.118   22.139   22.158   22.176   22.193   22.208
 (dLV/dLP)t      -1.04031 -1.03974 -1.03921 -1.03873 -1.03828 -1.03786 -1.03747 -1.03710
 (dLV/dLT)p        1.7455   1.7326   1.7209   1.7101   1.7002   1.6911   1.6825   1.6745
 Cp, KJ/(KG)(K)    7.3101   7.1986   7.0980   7.0064   6.9225   6.8451   6.7733   6.7064
 GAMMAs            1.1321   1.1327   1.1333   1.1338   1.1343   1.1348   1.1352   1.1356
 SON VEL,M/SEC     1196.0   1197.9   1199.6   1201.1   1202.6   1203.9   1205.1   1206.3

 MASS FRACTIONS

 *CO              0.45025  0.44995  0.44967  0.44941  0.44917  0.44894  0.44872  0.44851
 *CO2             0.22970  0.23017  0.23061  0.23102  0.23140  0.23176  0.23211  0.23243
 COOH             0.00001  0.00001  0.00001  0.00001  0.00001  0.00001  0.00001  0.00001
 *H               0.00204  0.00200  0.00196  0.00193  0.00190  0.00187  0.00185  0.00182
 HCO              0.00001  0.00001  0.00001  0.00001  0.00001  0.00002  0.00002  0.00002
 HO2              0.00004  0.00004  0.00004  0.00004  0.00004  0.00005  0.00005  0.00005
 *H2              0.01035  0.01032  0.01030  0.01028  0.01026  0.01024  0.01023  0.01021
 H2O              0.24174  0.24244  0.24309  0.24368  0.24423  0.24475  0.24523  0.24569
 H2O2             0.00000  0.00000  0.00000  0.00001  0.00001  0.00001  0.00001  0.00001
 *O               0.00827  0.00807  0.00789  0.00772  0.00757  0.00742  0.00729  0.00717
 *OH              0.04083  0.04055  0.04029  0.04004  0.03981  0.03959  0.03938  0.03918
 *O2              0.01675  0.01642  0.01612  0.01584  0.01558  0.01534  0.01511  0.01490

  * THERMODYNAMIC PROPERTIES FITTED TO 20000.K

 NOTE. WEIGHT FRACTION OF FUEL IN TOTAL FUELS AND OF OXIDANT IN TOTAL OXIDANTS

         THERMODYNAMIC EQUILIBRIUM COMBUSTION PROPERTIES AT ASSIGNED

                                   PRESSURES

 CASE = _______________

             REACTANT                    WT FRACTION      ENERGY      TEMP
                                          (SEE NOTE)     KJ/KG-MOL      K  
 FUEL        RP-1                         1.0000000    -24717.700    298.150
 OXIDANT     O2(L)                        1.0000000    -12979.000     90.170

 O/F=    2.36000  %FUEL= 29.761905  R,EQ.RATIO= 1.443079  PHI,EQ.RATIO= 1.443079

 THERMODYNAMIC PROPERTIES

 P, BAR            18.000   19.000   20.000   21.000   22.000   23.000   24.000
 T, K             3429.91  3436.88  3443.48  3449.76  3455.74  3461.45  3466.92
 RHO, KG/CU M    1.4027 0 1.4785 0 1.5543 0 1.6300 0 1.7056 0 1.7811 0 1.8565 0
 H, KJ/KG         -811.25  -811.25  -811.25  -811.25  -811.25  -811.25  -811.25
 U, KJ/KG        -2094.50 -2096.30 -2097.99 -2099.60 -2101.14 -2102.60 -2103.99
 G, KJ/KG        -41935.0 -41949.0 -41962.0 -41974.1 -41985.5 -41996.1 -42006.1
 S, KJ/(KG)(K)    11.9897  11.9695  11.9503  11.9321  11.9147  11.8982  11.8823

 M, (1/n)          22.223   22.237   22.251   22.263   22.275   22.287   22.298
 (dLV/dLP)t      -1.03675 -1.03642 -1.03611 -1.03581 -1.03553 -1.03526 -1.03500
 (dLV/dLT)p        1.6669   1.6598   1.6531   1.6467   1.6407   1.6349   1.6294
 Cp, KJ/(KG)(K)    6.6439   6.5851   6.5298   6.4775   6.4280   6.3810   6.3362
 GAMMAs            1.1360   1.1364   1.1367   1.1371   1.1374   1.1377   1.1380
 SON VEL,M/SEC     1207.4   1208.4   1209.4   1210.3   1211.2   1212.1   1212.9

 MASS FRACTIONS

 *CO              0.44831  0.44812  0.44794  0.44777  0.44760  0.44744  0.44728
 *CO2             0.23274  0.23304  0.23332  0.23359  0.23386  0.23411  0.23435
 COOH             0.00001  0.00001  0.00001  0.00001  0.00002  0.00002  0.00002
 *H               0.00180  0.00178  0.00176  0.00174  0.00173  0.00171  0.00169
 HCO              0.00002  0.00002  0.00002  0.00002  0.00002  0.00002  0.00002
 HO2              0.00005  0.00005  0.00005  0.00005  0.00005  0.00005  0.00005
 *H2              0.01020  0.01018  0.01017  0.01016  0.01015  0.01014  0.01012
 H2O              0.24612  0.24653  0.24691  0.24728  0.24764  0.24797  0.24830
 H2O2             0.00001  0.00001  0.00001  0.00001  0.00001  0.00001  0.00001
 *O               0.00705  0.00695  0.00684  0.00675  0.00665  0.00657  0.00648
 *OH              0.03898  0.03880  0.03862  0.03845  0.03828  0.03812  0.03797
 *O2              0.01470  0.01451  0.01434  0.01417  0.01401  0.01385  0.01371

  * THERMODYNAMIC PROPERTIES FITTED TO 20000.K

 NOTE. WEIGHT FRACTION OF FUEL IN TOTAL FUELS AND OF OXIDANT IN TOTAL OXIDANTS

         THERMODYNAMIC EQUILIBRIUM COMBUSTION PROPERTIES AT ASSIGNED

                                   PRESSURES

 CASE = _______________

             REACTANT                    WT FRACTION      ENERGY      TEMP
                                          (SEE NOTE)     KJ/KG-MOL      K  
 FUEL        RP-1                         1.0000000    -24717.700    298.150
 OXIDANT     O2(L)                        1.0000000    -12979.000     90.170

 O/F=    2.37000  %FUEL= 29.673591  R,EQ.RATIO= 1.436990  PHI,EQ.RATIO= 1.436990

 THERMODYNAMIC PROPERTIES

 P, BAR            10.000   11.000   12.000   13.000   14.000   15.000   16.000   17.000
 T, K             3356.66  3369.01  3380.28  3390.66  3400.27  3409.21  3417.58  3425.44
 RHO, KG/CU M    7.9214-1 8.6914-1 9.4595-1 1.0226 0 1.0991 0 1.1755 0 1.2517 0 1.3279 0
 H, KJ/KG         -810.05  -810.05  -810.05  -810.05  -810.05  -810.05  -810.05  -810.05
 U, KJ/KG        -2072.44 -2075.67 -2078.61 -2081.30 -2083.79 -2086.11 -2088.27 -2090.29
 G, KJ/KG        -41758.5 -41788.4 -41815.1 -41839.2 -41861.0 -41880.9 -41899.2 -41916.1
 S, KJ/(KG)(K)    12.1992  12.1633  12.1307  12.1006  12.0729  12.0470  12.0229  12.0002

 M, (1/n)          22.108   22.133   22.155   22.176   22.196   22.214   22.230   22.246
 (dLV/dLP)t      -1.04090 -1.04033 -1.03980 -1.03932 -1.03887 -1.03845 -1.03806 -1.03769
 (dLV/dLT)p        1.7561   1.7432   1.7314   1.7206   1.7107   1.7015   1.6929   1.6849
 Cp, KJ/(KG)(K)    7.3709   7.2590   7.1581   7.0662   6.9819   6.9042   6.8322   6.7650
 GAMMAs            1.1318   1.1324   1.1330   1.1335   1.1340   1.1344   1.1349   1.1353
 SON VEL,M/SEC     1195.3   1197.2   1198.8   1200.4   1201.8   1203.2   1204.4   1205.6

 MASS FRACTIONS

 *CO              0.44748  0.44717  0.44688  0.44661  0.44636  0.44612  0.44589  0.44568
 *CO2             0.23128  0.23177  0.23222  0.23264  0.23304  0.23341  0.23376  0.23410
 COOH             0.00001  0.00001  0.00001  0.00001  0.00001  0.00001  0.00001  0.00001
 *H               0.00203  0.00199  0.00196  0.00193  0.00190  0.00187  0.00185  0.00182
 HCO              0.00001  0.00001  0.00001  0.00001  0.00001  0.00002  0.00002  0.00002
 HO2              0.00004  0.00004  0.00004  0.00004  0.00005  0.00005  0.00005  0.00005
 *H2              0.01020  0.01018  0.01016  0.01014  0.01012  0.01010  0.01008  0.01007
 H2O              0.24164  0.24235  0.24299  0.24359  0.24414  0.24466  0.24514  0.24560
 H2O2             0.00000  0.00000  0.00000  0.00001  0.00001  0.00001  0.00001  0.00001
 *O               0.00848  0.00828  0.00810  0.00793  0.00777  0.00763  0.00749  0.00737
 *OH              0.04138  0.04111  0.04085  0.04061  0.04037  0.04016  0.03995  0.03975
 *O2              0.01742  0.01708  0.01677  0.01649  0.01622  0.01598  0.01575  0.01553

  * THERMODYNAMIC PROPERTIES FITTED TO 20000.K

 NOTE. WEIGHT FRACTION OF FUEL IN TOTAL FUELS AND OF OXIDANT IN TOTAL OXIDANTS

         THERMODYNAMIC EQUILIBRIUM COMBUSTION PROPERTIES AT ASSIGNED

                                   PRESSURES

 CASE = _______________

             REACTANT                    WT FRACTION      ENERGY      TEMP
                                          (SEE NOTE)     KJ/KG-MOL      K  
 FUEL        RP-1                         1.0000000    -24717.700    298.150
 OXIDANT     O2(L)                        1.0000000    -12979.000     90.170

 O/F=    2.37000  %FUEL= 29.673591  R,EQ.RATIO= 1.436990  PHI,EQ.RATIO= 1.436990

 THERMODYNAMIC PROPERTIES

 P, BAR            18.000   19.000   20.000   21.000   22.000   23.000   24.000
 T, K             3432.85  3439.85  3446.49  3452.81  3458.83  3464.58  3470.08
 RHO, KG/CU M    1.4039 0 1.4798 0 1.5556 0 1.6314 0 1.7070 0 1.7826 0 1.8581 0
 H, KJ/KG         -810.05  -810.05  -810.05  -810.05  -810.05  -810.05  -810.05
 U, KJ/KG        -2092.20 -2094.00 -2095.70 -2097.31 -2098.85 -2100.32 -2101.72
 G, KJ/KG        -41931.6 -41946.1 -41959.6 -41972.2 -41983.9 -41995.0 -42005.4
 S, KJ/(KG)(K)    11.9789  11.9587  11.9395  11.9213  11.9040  11.8874  11.8716

 M, (1/n)          22.261   22.276   22.289   22.302   22.314   22.326   22.337
 (dLV/dLP)t      -1.03734 -1.03702 -1.03670 -1.03641 -1.03612 -1.03585 -1.03559
 (dLV/dLT)p        1.6773   1.6702   1.6635   1.6571   1.6510   1.6452   1.6397
 Cp, KJ/(KG)(K)    6.7022   6.6433   6.5877   6.5352   6.4855   6.4383   6.3934
 GAMMAs            1.1356   1.1360   1.1363   1.1367   1.1370   1.1373   1.1376
 SON VEL,M/SEC     1206.7   1207.7   1208.7   1209.6   1210.5   1211.4   1212.2

 MASS FRACTIONS

 *CO              0.44547  0.44528  0.44509  0.44491  0.44474  0.44457  0.44441
 *CO2             0.23442  0.23473  0.23502  0.23530  0.23557  0.23583  0.23608
 COOH             0.00001  0.00001  0.00001  0.00001  0.00002  0.00002  0.00002
 *H               0.00180  0.00178  0.00176  0.00174  0.00172  0.00171  0.00169
 HCO              0.00002  0.00002  0.00002  0.00002  0.00002  0.00002  0.00002
 HO2              0.00005  0.00005  0.00005  0.00005  0.00005  0.00005  0.00005
 *H2              0.01005  0.01004  0.01002  0.01001  0.01000  0.00999  0.00998
 H2O              0.24603  0.24644  0.24683  0.24720  0.24755  0.24789  0.24821
 H2O2             0.00001  0.00001  0.00001  0.00001  0.00001  0.00001  0.00001
 *O               0.00725  0.00714  0.00704  0.00694  0.00685  0.00676  0.00667
 *OH              0.03956  0.03937  0.03919  0.03902  0.03886  0.03870  0.03855
 *O2              0.01533  0.01514  0.01495  0.01478  0.01462  0.01446  0.01431

  * THERMODYNAMIC PROPERTIES FITTED TO 20000.K

 NOTE. WEIGHT FRACTION OF FUEL IN TOTAL FUELS AND OF OXIDANT IN TOTAL OXIDANTS

         THERMODYNAMIC EQUILIBRIUM COMBUSTION PROPERTIES AT ASSIGNED

                                   PRESSURES

 CASE = _______________

             REACTANT                    WT FRACTION      ENERGY      TEMP
                                          (SEE NOTE)     KJ/KG-MOL      K  
 FUEL        RP-1                         1.0000000    -24717.700    298.150
 OXIDANT     O2(L)                        1.0000000    -12979.000     90.170

 O/F=    2.38000  %FUEL= 29.585799  R,EQ.RATIO= 1.430952  PHI,EQ.RATIO= 1.430952

 THERMODYNAMIC PROPERTIES

 P, BAR            10.000   11.000   12.000   13.000   14.000   15.000   16.000   17.000
 T, K             3359.11  3371.51  3382.84  3393.27  3402.93  3411.92  3420.33  3428.24
 RHO, KG/CU M    7.9288-1 8.6994-1 9.4682-1 1.0235 0 1.1001 0 1.1765 0 1.2528 0 1.3290 0
 H, KJ/KG         -808.85  -808.85  -808.85  -808.85  -808.85  -808.85  -808.85  -808.85
 U, KJ/KG        -2070.07 -2073.30 -2076.25 -2078.95 -2081.45 -2083.77 -2085.94 -2087.97
 G, KJ/KG        -41749.4 -41780.1 -41807.4 -41832.1 -41854.5 -41875.0 -41893.8 -41911.1
 S, KJ/(KG)(K)    12.1879  12.1522  12.1196  12.0896  12.0619  12.0361  12.0120  11.9893

 M, (1/n)          22.145   22.170   22.192   22.213   22.233   22.251   22.268   22.284
 (dLV/dLP)t      -1.04148 -1.04091 -1.04038 -1.03990 -1.03945 -1.03904 -1.03864 -1.03828
 (dLV/dLT)p        1.7665   1.7536   1.7418   1.7310   1.7210   1.7118   1.7032   1.6951
 Cp, KJ/(KG)(K)    7.4306   7.3184   7.2171   7.1249   7.0404   6.9624   6.8901   6.8227
 GAMMAs            1.1315   1.1321   1.1326   1.1332   1.1336   1.1341   1.1345   1.1349
 SON VEL,M/SEC     1194.6   1196.4   1198.1   1199.7   1201.1   1202.4   1203.7   1204.9

 MASS FRACTIONS

 *CO              0.44472  0.44440  0.44411  0.44383  0.44357  0.44332  0.44309  0.44287
 *CO2             0.23285  0.23335  0.23381  0.23425  0.23466  0.23504  0.23541  0.23575
 COOH             0.00001  0.00001  0.00001  0.00001  0.00001  0.00001  0.00001  0.00001
 *H               0.00203  0.00199  0.00196  0.00192  0.00190  0.00187  0.00184  0.00182
 HCO              0.00001  0.00001  0.00001  0.00001  0.00001  0.00001  0.00002  0.00002
 HO2              0.00004  0.00004  0.00005  0.00005  0.00005  0.00005  0.00005  0.00005
 *H2              0.01006  0.01004  0.01002  0.00999  0.00998  0.00996  0.00994  0.00992
 H2O              0.24154  0.24224  0.24289  0.24349  0.24404  0.24456  0.24504  0.24550
 H2O2             0.00000  0.00000  0.00001  0.00001  0.00001  0.00001  0.00001  0.00001
 *O               0.00870  0.00849  0.00831  0.00813  0.00798  0.00783  0.00770  0.00757
 *OH              0.04193  0.04166  0.04140  0.04116  0.04093  0.04071  0.04051  0.04031
 *O2              0.01810  0.01775  0.01744  0.01715  0.01688  0.01663  0.01639  0.01617

  * THERMODYNAMIC PROPERTIES FITTED TO 20000.K

 NOTE. WEIGHT FRACTION OF FUEL IN TOTAL FUELS AND OF OXIDANT IN TOTAL OXIDANTS

         THERMODYNAMIC EQUILIBRIUM COMBUSTION PROPERTIES AT ASSIGNED

                                   PRESSURES

 CASE = _______________

             REACTANT                    WT FRACTION      ENERGY      TEMP
                                          (SEE NOTE)     KJ/KG-MOL      K  
 FUEL        RP-1                         1.0000000    -24717.700    298.150
 OXIDANT     O2(L)                        1.0000000    -12979.000     90.170

 O/F=    2.38000  %FUEL= 29.585799  R,EQ.RATIO= 1.430952  PHI,EQ.RATIO= 1.430952

 THERMODYNAMIC PROPERTIES

 P, BAR            18.000   19.000   20.000   21.000   22.000   23.000   24.000
 T, K             3435.68  3442.73  3449.41  3455.76  3461.82  3467.60  3473.14
 RHO, KG/CU M    1.4051 0 1.4811 0 1.5570 0 1.6328 0 1.7085 0 1.7841 0 1.8596 0
 H, KJ/KG         -808.85  -808.85  -808.85  -808.85  -808.85  -808.85  -808.85
 U, KJ/KG        -2089.88 -2091.68 -2093.39 -2095.01 -2096.56 -2098.03 -2099.44
 G, KJ/KG        -41927.2 -41942.1 -41956.0 -41969.0 -41981.2 -41992.7 -42003.5
 S, KJ/(KG)(K)    11.9680  11.9479  11.9288  11.9106  11.8933  11.8768  11.8609

 M, (1/n)          22.299   22.314   22.327   22.340   22.352   22.364   22.375
 (dLV/dLP)t      -1.03793 -1.03760 -1.03729 -1.03699 -1.03671 -1.03644 -1.03618
 (dLV/dLT)p        1.6876   1.6804   1.6737   1.6673   1.6612   1.6554   1.6498
 Cp, KJ/(KG)(K)    6.7597   6.7005   6.6448   6.5921   6.5422   6.4948   6.4497
 GAMMAs            1.1353   1.1356   1.1360   1.1363   1.1366   1.1369   1.1372
 SON VEL,M/SEC     1206.0   1207.0   1208.0   1208.9   1209.8   1210.7   1211.5

 MASS FRACTIONS

 *CO              0.44266  0.44245  0.44226  0.44208  0.44190  0.44173  0.44156
 *CO2             0.23608  0.23640  0.23670  0.23699  0.23727  0.23753  0.23779
 COOH             0.00001  0.00001  0.00001  0.00001  0.00002  0.00002  0.00002
 *H               0.00180  0.00178  0.00176  0.00174  0.00172  0.00171  0.00169
 HCO              0.00002  0.00002  0.00002  0.00002  0.00002  0.00002  0.00002
 HO2              0.00005  0.00005  0.00005  0.00005  0.00005  0.00005  0.00006
 *H2              0.00991  0.00989  0.00988  0.00987  0.00986  0.00984  0.00983
 H2O              0.24593  0.24634  0.24673  0.24710  0.24745  0.24779  0.24812
 H2O2             0.00001  0.00001  0.00001  0.00001  0.00001  0.00001  0.00001
 *O               0.00745  0.00734  0.00723  0.00713  0.00704  0.00695  0.00686
 *OH              0.04012  0.03994  0.03976  0.03959  0.03943  0.03927  0.03912
 *O2              0.01596  0.01577  0.01558  0.01541  0.01524  0.01508  0.01492

  * THERMODYNAMIC PROPERTIES FITTED TO 20000.K

 NOTE. WEIGHT FRACTION OF FUEL IN TOTAL FUELS AND OF OXIDANT IN TOTAL OXIDANTS

         THERMODYNAMIC EQUILIBRIUM COMBUSTION PROPERTIES AT ASSIGNED

                                   PRESSURES

 CASE = _______________

             REACTANT                    WT FRACTION      ENERGY      TEMP
                                          (SEE NOTE)     KJ/KG-MOL      K  
 FUEL        RP-1                         1.0000000    -24717.700    298.150
 OXIDANT     O2(L)                        1.0000000    -12979.000     90.170

 O/F=    2.39000  %FUEL= 29.498525  R,EQ.RATIO= 1.424965  PHI,EQ.RATIO= 1.424965

 THERMODYNAMIC PROPERTIES

 P, BAR            10.000   11.000   12.000   13.000   14.000   15.000   16.000   17.000
 T, K             3361.47  3373.93  3385.31  3395.79  3405.50  3414.54  3422.99  3430.94
 RHO, KG/CU M    7.9363-1 8.7076-1 9.4770-1 1.0245 0 1.1011 0 1.1776 0 1.2540 0 1.3302 0
 H, KJ/KG         -807.66  -807.66  -807.66  -807.66  -807.66  -807.66  -807.66  -807.66
 U, KJ/KG        -2067.68 -2070.93 -2073.88 -2076.59 -2079.10 -2081.43 -2083.60 -2085.64
 G, KJ/KG        -41739.5 -41770.7 -41798.7 -41824.0 -41847.0 -41868.0 -41887.3 -41905.1
 S, KJ/(KG)(K)    12.1768  12.1411  12.1085  12.0786  12.0509  12.0252  12.0011  11.9785

 M, (1/n)          22.181   22.206   22.229   22.250   22.270   22.288   22.306   22.322
 (dLV/dLP)t      -1.04206 -1.04148 -1.04096 -1.04048 -1.04003 -1.03961 -1.03922 -1.03885
 (dLV/dLT)p        1.7768   1.7638   1.7520   1.7412   1.7313   1.7220   1.7134   1.7053
 Cp, KJ/(KG)(K)    7.4893   7.3767   7.2751   7.1826   7.0979   7.0196   6.9471   6.8795
 GAMMAs            1.1312   1.1318   1.1323   1.1328   1.1333   1.1337   1.1342   1.1346
 SON VEL,M/SEC     1193.9   1195.7   1197.4   1199.0   1200.4   1201.7   1203.0   1204.1

 MASS FRACTIONS

 *CO              0.44199  0.44166  0.44136  0.44107  0.44080  0.44055  0.44031  0.44008
 *CO2             0.23440  0.23491  0.23539  0.23584  0.23626  0.23665  0.23703  0.23739
 COOH             0.00001  0.00001  0.00001  0.00001  0.00001  0.00001  0.00001  0.00001
 *H               0.00203  0.00199  0.00195  0.00192  0.00189  0.00187  0.00184  0.00182
 HCO              0.00001  0.00001  0.00001  0.00001  0.00001  0.00001  0.00002  0.00002
 HO2              0.00004  0.00005  0.00005  0.00005  0.00005  0.00005  0.00005  0.00005
 *H2              0.00992  0.00990  0.00988  0.00986  0.00984  0.00982  0.00980  0.00978
 H2O              0.24142  0.24212  0.24277  0.24337  0.24392  0.24444  0.24493  0.24538
 H2O2             0.00000  0.00000  0.00001  0.00001  0.00001  0.00001  0.00001  0.00001
 *O               0.00891  0.00871  0.00852  0.00834  0.00818  0.00803  0.00790  0.00777
 *OH              0.04247  0.04220  0.04194  0.04171  0.04148  0.04126  0.04106  0.04086
 *O2              0.01879  0.01844  0.01812  0.01782  0.01755  0.01729  0.01705  0.01683

  * THERMODYNAMIC PROPERTIES FITTED TO 20000.K

 NOTE. WEIGHT FRACTION OF FUEL IN TOTAL FUELS AND OF OXIDANT IN TOTAL OXIDANTS

         THERMODYNAMIC EQUILIBRIUM COMBUSTION PROPERTIES AT ASSIGNED

                                   PRESSURES

 CASE = _______________

             REACTANT                    WT FRACTION      ENERGY      TEMP
                                          (SEE NOTE)     KJ/KG-MOL      K  
 FUEL        RP-1                         1.0000000    -24717.700    298.150
 OXIDANT     O2(L)                        1.0000000    -12979.000     90.170

 O/F=    2.39000  %FUEL= 29.498525  R,EQ.RATIO= 1.424965  PHI,EQ.RATIO= 1.424965

 THERMODYNAMIC PROPERTIES

 P, BAR            18.000   19.000   20.000   21.000   22.000   23.000   24.000
 T, K             3438.43  3445.51  3452.23  3458.62  3464.71  3470.52  3476.09
 RHO, KG/CU M    1.4064 0 1.4824 0 1.5583 0 1.6342 0 1.7099 0 1.7856 0 1.8612 0
 H, KJ/KG         -807.66  -807.66  -807.66  -807.66  -807.66  -807.66  -807.66
 U, KJ/KG        -2087.55 -2089.36 -2091.08 -2092.70 -2094.25 -2095.73 -2097.14
 G, KJ/KG        -41921.6 -41937.0 -41951.4 -41964.8 -41977.4 -41989.2 -42000.4
 S, KJ/(KG)(K)    11.9572  11.9371  11.9180  11.8999  11.8826  11.8661  11.8503

 M, (1/n)          22.337   22.351   22.365   22.378   22.390   22.402   22.414
 (dLV/dLP)t      -1.03851 -1.03818 -1.03787 -1.03757 -1.03729 -1.03702 -1.03676
 (dLV/dLT)p        1.6977   1.6906   1.6838   1.6774   1.6713   1.6654   1.6599
 Cp, KJ/(KG)(K)    6.8163   6.7569   6.7010   6.6481   6.5980   6.5505   6.5052
 GAMMAs            1.1349   1.1353   1.1356   1.1359   1.1362   1.1365   1.1368
 SON VEL,M/SEC     1205.2   1206.3   1207.3   1208.2   1209.1   1209.9   1210.8

 MASS FRACTIONS

 *CO              0.43986  0.43965  0.43945  0.43926  0.43908  0.43890  0.43873
 *CO2             0.23773  0.23805  0.23836  0.23866  0.23895  0.23922  0.23949
 COOH             0.00001  0.00001  0.00001  0.00001  0.00002  0.00002  0.00002
 *H               0.00180  0.00177  0.00176  0.00174  0.00172  0.00170  0.00169
 HCO              0.00002  0.00002  0.00002  0.00002  0.00002  0.00002  0.00002
 HO2              0.00005  0.00005  0.00005  0.00005  0.00006  0.00006  0.00006
 *H2              0.00977  0.00975  0.00974  0.00973  0.00971  0.00970  0.00969
 H2O              0.24582  0.24623  0.24662  0.24699  0.24734  0.24768  0.24801
 H2O2             0.00001  0.00001  0.00001  0.00001  0.00001  0.00001  0.00001
 *O               0.00765  0.00754  0.00743  0.00733  0.00723  0.00714  0.00705
 *OH              0.04068  0.04050  0.04032  0.04015  0.03999  0.03984  0.03969
 *O2              0.01662  0.01642  0.01623  0.01605  0.01587  0.01571  0.01555

  * THERMODYNAMIC PROPERTIES FITTED TO 20000.K

 NOTE. WEIGHT FRACTION OF FUEL IN TOTAL FUELS AND OF OXIDANT IN TOTAL OXIDANTS

         THERMODYNAMIC EQUILIBRIUM COMBUSTION PROPERTIES AT ASSIGNED

                                   PRESSURES

 CASE = _______________

             REACTANT                    WT FRACTION      ENERGY      TEMP
                                          (SEE NOTE)     KJ/KG-MOL      K  
 FUEL        RP-1                         1.0000000    -24717.700    298.150
 OXIDANT     O2(L)                        1.0000000    -12979.000     90.170

 O/F=    2.40000  %FUEL= 29.411765  R,EQ.RATIO= 1.419028  PHI,EQ.RATIO= 1.419028

 THERMODYNAMIC PROPERTIES

 P, BAR            10.000   11.000   12.000   13.000   14.000   15.000   16.000   17.000
 T, K             3363.74  3376.26  3387.70  3398.23  3407.98  3417.06  3425.56  3433.55
 RHO, KG/CU M    7.9439-1 8.7158-1 9.4859-1 1.0254 0 1.1021 0 1.1787 0 1.2551 0 1.3314 0
 H, KJ/KG         -806.48  -806.48  -806.48  -806.48  -806.48  -806.48  -806.48  -806.48
 U, KJ/KG        -2065.30 -2068.55 -2071.51 -2074.23 -2076.74 -2079.07 -2081.25 -2083.29
 G, KJ/KG        -41728.6 -41760.5 -41789.1 -41815.0 -41838.5 -41860.0 -41879.8 -41898.1
 S, KJ/(KG)(K)    12.1656  12.1300  12.0975  12.0676  12.0400  12.0143  11.9902  11.9677

 M, (1/n)          22.218   22.243   22.266   22.287   22.307   22.325   22.343   22.359
 (dLV/dLP)t      -1.04262 -1.04205 -1.04153 -1.04105 -1.04060 -1.04018 -1.03979 -1.03943
 (dLV/dLT)p        1.7870   1.7740   1.7622   1.7513   1.7413   1.7321   1.7234   1.7153
 Cp, KJ/(KG)(K)    7.5468   7.4340   7.3321   7.2393   7.1543   7.0759   7.0031   6.9354
 GAMMAs            1.1309   1.1315   1.1320   1.1325   1.1330   1.1334   1.1338   1.1342
 SON VEL,M/SEC     1193.1   1195.0   1196.7   1198.2   1199.7   1201.0   1202.2   1203.4

 MASS FRACTIONS

 *CO              0.43928  0.43894  0.43862  0.43833  0.43805  0.43779  0.43754  0.43731
 *CO2             0.23593  0.23646  0.23695  0.23741  0.23784  0.23825  0.23864  0.23900
 COOH             0.00001  0.00001  0.00001  0.00001  0.00001  0.00001  0.00001  0.00001
 *H               0.00202  0.00198  0.00195  0.00192  0.00189  0.00186  0.00184  0.00181
 HCO              0.00001  0.00001  0.00001  0.00001  0.00001  0.00001  0.00002  0.00002
 HO2              0.00005  0.00005  0.00005  0.00005  0.00005  0.00005  0.00005  0.00005
 *H2              0.00979  0.00976  0.00974  0.00972  0.00970  0.00968  0.00966  0.00965
 H2O              0.24129  0.24199  0.24264  0.24324  0.24379  0.24431  0.24480  0.24526
 H2O2             0.00000  0.00001  0.00001  0.00001  0.00001  0.00001  0.00001  0.00001
 *O               0.00913  0.00892  0.00873  0.00855  0.00839  0.00824  0.00810  0.00797
 *OH              0.04300  0.04273  0.04248  0.04224  0.04202  0.04181  0.04160  0.04141
 *O2              0.01950  0.01914  0.01881  0.01851  0.01823  0.01797  0.01773  0.01750

  * THERMODYNAMIC PROPERTIES FITTED TO 20000.K

 NOTE. WEIGHT FRACTION OF FUEL IN TOTAL FUELS AND OF OXIDANT IN TOTAL OXIDANTS

         THERMODYNAMIC EQUILIBRIUM COMBUSTION PROPERTIES AT ASSIGNED

                                   PRESSURES

 CASE = _______________

             REACTANT                    WT FRACTION      ENERGY      TEMP
                                          (SEE NOTE)     KJ/KG-MOL      K  
 FUEL        RP-1                         1.0000000    -24717.700    298.150
 OXIDANT     O2(L)                        1.0000000    -12979.000     90.170

 O/F=    2.40000  %FUEL= 29.411765  R,EQ.RATIO= 1.419028  PHI,EQ.RATIO= 1.419028

 THERMODYNAMIC PROPERTIES

 P, BAR            18.000   19.000   20.000   21.000   22.000   23.000   24.000
 T, K             3441.07  3448.19  3454.95  3461.37  3467.50  3473.35  3478.95
 RHO, KG/CU M    1.4076 0 1.4837 0 1.5597 0 1.6356 0 1.7114 0 1.7872 0 1.8628 0
 H, KJ/KG         -806.48  -806.48  -806.48  -806.48  -806.48  -806.48  -806.48
 U, KJ/KG        -2085.22 -2087.03 -2088.75 -2090.38 -2091.94 -2093.42 -2094.84
 G, KJ/KG        -41915.1 -41930.9 -41945.6 -41959.5 -41972.4 -41984.7 -41996.2
 S, KJ/(KG)(K)    11.9464  11.9264  11.9073  11.8892  11.8720  11.8555  11.8397

 M, (1/n)          22.374   22.389   22.403   22.416   22.428   22.440   22.452
 (dLV/dLP)t      -1.03908 -1.03875 -1.03844 -1.03814 -1.03786 -1.03759 -1.03733
 (dLV/dLT)p        1.7077   1.7006   1.6938   1.6873   1.6812   1.6754   1.6698
 Cp, KJ/(KG)(K)    6.8719   6.8124   6.7562   6.7032   6.6530   6.6052   6.5598
 GAMMAs            1.1346   1.1349   1.1353   1.1356   1.1359   1.1362   1.1365
 SON VEL,M/SEC     1204.5   1205.6   1206.5   1207.5   1208.4   1209.2   1210.0

 MASS FRACTIONS

 *CO              0.43709  0.43687  0.43667  0.43647  0.43628  0.43610  0.43593
 *CO2             0.23935  0.23969  0.24001  0.24032  0.24061  0.24089  0.24117
 COOH             0.00001  0.00001  0.00001  0.00001  0.00002  0.00002  0.00002
 *H               0.00179  0.00177  0.00175  0.00173  0.00172  0.00170  0.00168
 HCO              0.00002  0.00002  0.00002  0.00002  0.00002  0.00002  0.00002
 HO2              0.00005  0.00006  0.00006  0.00006  0.00006  0.00006  0.00006
 *H2              0.00963  0.00962  0.00960  0.00959  0.00958  0.00956  0.00955
 H2O              0.24569  0.24610  0.24649  0.24686  0.24722  0.24756  0.24788
 H2O2             0.00001  0.00001  0.00001  0.00001  0.00001  0.00001  0.00001
 *O               0.00785  0.00773  0.00762  0.00752  0.00742  0.00733  0.00724
 *OH              0.04122  0.04105  0.04087  0.04071  0.04055  0.04039  0.04024
 *O2              0.01728  0.01708  0.01688  0.01670  0.01652  0.01636  0.01619

  * THERMODYNAMIC PROPERTIES FITTED TO 20000.K

 NOTE. WEIGHT FRACTION OF FUEL IN TOTAL FUELS AND OF OXIDANT IN TOTAL OXIDANTS

         THERMODYNAMIC EQUILIBRIUM COMBUSTION PROPERTIES AT ASSIGNED

                                   PRESSURES

 CASE = _______________

             REACTANT                    WT FRACTION      ENERGY      TEMP
                                          (SEE NOTE)     KJ/KG-MOL      K  
 FUEL        RP-1                         1.0000000    -24717.700    298.150
 OXIDANT     O2(L)                        1.0000000    -12979.000     90.170

 O/F=    2.41000  %FUEL= 29.325513  R,EQ.RATIO= 1.413140  PHI,EQ.RATIO= 1.413140

 THERMODYNAMIC PROPERTIES

 P, BAR            10.000   11.000   12.000   13.000   14.000   15.000   16.000   17.000
 T, K             3365.94  3378.51  3390.00  3400.58  3410.38  3419.50  3428.04  3436.06
 RHO, KG/CU M    7.9516-1 8.7242-1 9.4950-1 1.0264 0 1.1032 0 1.1798 0 1.2563 0 1.3327 0
 H, KJ/KG         -805.30  -805.30  -805.30  -805.30  -805.30  -805.30  -805.30  -805.30
 U, KJ/KG        -2062.90 -2066.16 -2069.13 -2071.85 -2074.37 -2076.71 -2078.90 -2080.94
 G, KJ/KG        -41716.8 -41749.4 -41778.6 -41805.0 -41829.0 -41851.0 -41871.3 -41890.0
 S, KJ/(KG)(K)    12.1545  12.1190  12.0865  12.0567  12.0291  12.0034  11.9794  11.9569

 M, (1/n)          22.254   22.279   22.302   22.324   22.344   22.362   22.380   22.396
 (dLV/dLP)t      -1.04318 -1.04261 -1.04209 -1.04161 -1.04116 -1.04075 -1.04036 -1.03999
 (dLV/dLT)p        1.7970   1.7840   1.7721   1.7613   1.7513   1.7420   1.7334   1.7253
 Cp, KJ/(KG)(K)    7.6033   7.4901   7.3880   7.2950   7.2098   7.1311   7.0582   6.9902
 GAMMAs            1.1306   1.1312   1.1317   1.1322   1.1327   1.1331   1.1335   1.1339
 SON VEL,M/SEC     1192.4   1194.3   1195.9   1197.5   1198.9   1200.3   1201.5   1202.7

 MASS FRACTIONS

 *CO              0.43658  0.43624  0.43591  0.43561  0.43533  0.43506  0.43480  0.43456
 *CO2             0.23744  0.23799  0.23849  0.23897  0.23941  0.23983  0.24023  0.24061
 COOH             0.00001  0.00001  0.00001  0.00001  0.00001  0.00001  0.00001  0.00001
 *H               0.00202  0.00198  0.00195  0.00191  0.00189  0.00186  0.00183  0.00181
 HCO              0.00001  0.00001  0.00001  0.00001  0.00001  0.00001  0.00002  0.00002
 HO2              0.00005  0.00005  0.00005  0.00005  0.00005  0.00005  0.00005  0.00006
 *H2              0.00966  0.00963  0.00961  0.00959  0.00957  0.00955  0.00953  0.00951
 H2O              0.24115  0.24185  0.24250  0.24310  0.24365  0.24417  0.24466  0.24512
 H2O2             0.00000  0.00001  0.00001  0.00001  0.00001  0.00001  0.00001  0.00001
 *O               0.00934  0.00913  0.00894  0.00876  0.00859  0.00844  0.00830  0.00817
 *OH              0.04352  0.04325  0.04301  0.04277  0.04255  0.04234  0.04214  0.04195
 *O2              0.02022  0.01985  0.01952  0.01921  0.01892  0.01866  0.01841  0.01818

  * THERMODYNAMIC PROPERTIES FITTED TO 20000.K

 NOTE. WEIGHT FRACTION OF FUEL IN TOTAL FUELS AND OF OXIDANT IN TOTAL OXIDANTS

         THERMODYNAMIC EQUILIBRIUM COMBUSTION PROPERTIES AT ASSIGNED

                                   PRESSURES

 CASE = _______________

             REACTANT                    WT FRACTION      ENERGY      TEMP
                                          (SEE NOTE)     KJ/KG-MOL      K  
 FUEL        RP-1                         1.0000000    -24717.700    298.150
 OXIDANT     O2(L)                        1.0000000    -12979.000     90.170

 O/F=    2.41000  %FUEL= 29.325513  R,EQ.RATIO= 1.413140  PHI,EQ.RATIO= 1.413140

 THERMODYNAMIC PROPERTIES

 P, BAR            18.000   19.000   20.000   21.000   22.000   23.000   24.000
 T, K             3443.63  3450.79  3457.58  3464.03  3470.19  3476.07  3481.70
 RHO, KG/CU M    1.4089 0 1.4851 0 1.5611 0 1.6371 0 1.7130 0 1.7888 0 1.8645 0
 H, KJ/KG         -805.30  -805.30  -805.30  -805.30  -805.30  -805.30  -805.30
 U, KJ/KG        -2082.87 -2084.69 -2086.42 -2088.05 -2089.61 -2091.10 -2092.52
 G, KJ/KG        -41907.5 -41923.7 -41938.8 -41953.1 -41966.4 -41979.0 -41990.9
 S, KJ/(KG)(K)    11.9357  11.9157  11.8966  11.8786  11.8613  11.8449  11.8292

 M, (1/n)          22.411   22.426   22.440   22.453   22.466   22.478   22.489
 (dLV/dLP)t      -1.03964 -1.03932 -1.03900 -1.03871 -1.03843 -1.03816 -1.03790
 (dLV/dLT)p        1.7176   1.7105   1.7037   1.6972   1.6911   1.6852   1.6796
 Cp, KJ/(KG)(K)    6.9266   6.8669   6.8106   6.7574   6.7070   6.6591   6.6136
 GAMMAs            1.1343   1.1346   1.1349   1.1353   1.1356   1.1358   1.1361
 SON VEL,M/SEC     1203.8   1204.8   1205.8   1206.8   1207.6   1208.5   1209.3

 MASS FRACTIONS

 *CO              0.43433  0.43411  0.43390  0.43370  0.43351  0.43332  0.43314
 *CO2             0.24097  0.24131  0.24164  0.24195  0.24226  0.24255  0.24283
 COOH             0.00001  0.00001  0.00001  0.00002  0.00002  0.00002  0.00002
 *H               0.00179  0.00177  0.00175  0.00173  0.00171  0.00170  0.00168
 HCO              0.00002  0.00002  0.00002  0.00002  0.00002  0.00002  0.00002
 HO2              0.00006  0.00006  0.00006  0.00006  0.00006  0.00006  0.00006
 *H2              0.00950  0.00948  0.00947  0.00945  0.00944  0.00943  0.00942
 H2O              0.24555  0.24596  0.24635  0.24673  0.24708  0.24742  0.24775
 H2O2             0.00001  0.00001  0.00001  0.00001  0.00001  0.00001  0.00001
 *O               0.00805  0.00793  0.00782  0.00772  0.00762  0.00752  0.00743
 *OH              0.04177  0.04159  0.04142  0.04125  0.04110  0.04094  0.04079
 *O2              0.01796  0.01775  0.01755  0.01736  0.01718  0.01701  0.01685

  * THERMODYNAMIC PROPERTIES FITTED TO 20000.K

 NOTE. WEIGHT FRACTION OF FUEL IN TOTAL FUELS AND OF OXIDANT IN TOTAL OXIDANTS