

         NASA-GLENN CHEMICAL EQUILIBRIUM PROGRAM CEA2, FEBRUARY 5, 2004
                   BY  BONNIE MCBRIDE AND SANFORD GORDON
      REFS: NASA RP-1311, PART I, 1994 AND NASA RP-1311, PART II, 1996

 *******************************************************************************

  
 ### CEA analysis performed on Fri 28-May-2021 11:20:32
  
 # Problem Type: "Assigned Enthalpy and Pressure"
  
 prob case=_______________3078 hp
  
 # Pressure (15 values):
 p,bar= 10, 11, 12, 13, 14, 15, 16, 17, 18, 19, 20, 21, 22, 23, 24
  
 # Oxidizer/Fuel Wt. ratio (32 values):
 o/f= 2, 2.01, 2.02, 2.03, 2.04, 2.05, 2.06, 2.07, 2.08, 2.09, 2.1, 2.11, 2.12, 2
 .13, 2.14, 2.15, 2.16, 2.17, 2.18, 2.19, 2.2, 2.21,
  
 # You selected the following fuels and oxidizers:
 reac
 fuel RP-1              wt%=100.0000
 oxid O2(L)             wt%=100.0000
  
 # You selected these options for output:
 # short version of output
 output short
 # Proportions of any products will be expressed as Mass Fractions.
 output massf
 # Heat will be expressed as siunits
 output siunits
  
 # Input prepared by this script:/var/www/sites/cearun.grc.nasa.gov/cgi-bin/CEARU
 N/prepareInputFile.cgi
  
 ### IMPORTANT:  The following line is the end of your CEA input file!
 end

         THERMODYNAMIC EQUILIBRIUM COMBUSTION PROPERTIES AT ASSIGNED

                                   PRESSURES

 CASE = _______________

             REACTANT                    WT FRACTION      ENERGY      TEMP
                                          (SEE NOTE)     KJ/KG-MOL      K  
 FUEL        RP-1                         1.0000000    -24717.700    298.150
 OXIDANT     O2(L)                        1.0000000    -12979.000     90.170

 O/F=    2.00000  %FUEL= 33.333333  R,EQ.RATIO= 1.702833  PHI,EQ.RATIO= 1.702833

 THERMODYNAMIC PROPERTIES

 P, BAR            10.000   11.000   12.000   13.000   14.000   15.000   16.000   17.000
 T, K             3180.83  3189.43  3197.21  3204.32  3210.84  3216.87  3222.46  3227.68
 RHO, KG/CU M    7.7677-1 8.5280-1 9.2870-1 1.0045 0 1.0802 0 1.1558 0 1.2313 0 1.3068 0
 H, KJ/KG         -859.93  -859.93  -859.93  -859.93  -859.93  -859.93  -859.93  -859.93
 U, KJ/KG        -2147.31 -2149.80 -2152.05 -2154.11 -2155.99 -2157.73 -2159.34 -2160.84
 G, KJ/KG        -41058.5 -41044.2 -41029.8 -41015.4 -41001.1 -40986.8 -40972.8 -40958.9
 S, KJ/(KG)(K)    12.6378  12.5992  12.5640  12.5317  12.5018  12.4739  12.4479  12.4234

 M, (1/n)          20.543   20.559   20.573   20.586   20.598   20.609   20.620   20.629
 (dLV/dLP)t      -1.01757 -1.01715 -1.01677 -1.01642 -1.01610 -1.01580 -1.01553 -1.01527
 (dLV/dLT)p        1.3344   1.3255   1.3176   1.3103   1.3037   1.2976   1.2920   1.2868
 Cp, KJ/(KG)(K)    4.7515   4.6754   4.6072   4.5456   4.4894   4.4380   4.3906   4.3467
 GAMMAs            1.1549   1.1558   1.1568   1.1576   1.1584   1.1591   1.1598   1.1604
 SON VEL,M/SEC     1219.3   1221.0   1222.6   1224.0   1225.3   1226.5   1227.6   1228.7

 MASS FRACTIONS

 *CO              0.56424  0.56426  0.56427  0.56428  0.56428  0.56429  0.56429  0.56430
 *CO2             0.16306  0.16304  0.16302  0.16301  0.16299  0.16298  0.16297  0.16297
 COOH             0.00001  0.00001  0.00001  0.00001  0.00001  0.00001  0.00001  0.00001
 *H               0.00178  0.00174  0.00170  0.00167  0.00163  0.00160  0.00158  0.00155
 HCO              0.00001  0.00001  0.00002  0.00002  0.00002  0.00002  0.00002  0.00002
 HO2              0.00001  0.00001  0.00001  0.00001  0.00001  0.00001  0.00001  0.00001
 *H2              0.01816  0.01817  0.01817  0.01817  0.01818  0.01818  0.01818  0.01819
 H2O              0.23141  0.23191  0.23236  0.23277  0.23315  0.23350  0.23383  0.23413
 *O               0.00179  0.00172  0.00165  0.00159  0.00154  0.00149  0.00144  0.00140
 *OH              0.01752  0.01722  0.01695  0.01670  0.01647  0.01625  0.01604  0.01585
 *O2              0.00200  0.00192  0.00185  0.00178  0.00172  0.00167  0.00162  0.00158

  * THERMODYNAMIC PROPERTIES FITTED TO 20000.K

 NOTE. WEIGHT FRACTION OF FUEL IN TOTAL FUELS AND OF OXIDANT IN TOTAL OXIDANTS

         THERMODYNAMIC EQUILIBRIUM COMBUSTION PROPERTIES AT ASSIGNED

                                   PRESSURES

 CASE = _______________

             REACTANT                    WT FRACTION      ENERGY      TEMP
                                          (SEE NOTE)     KJ/KG-MOL      K  
 FUEL        RP-1                         1.0000000    -24717.700    298.150
 OXIDANT     O2(L)                        1.0000000    -12979.000     90.170

 O/F=    2.00000  %FUEL= 33.333333  R,EQ.RATIO= 1.702833  PHI,EQ.RATIO= 1.702833

 THERMODYNAMIC PROPERTIES

 P, BAR            18.000   19.000   20.000   21.000   22.000   23.000   24.000
 T, K             3232.57  3237.17  3241.50  3245.59  3249.48  3253.16  3256.67
 RHO, KG/CU M    1.3822 0 1.4575 0 1.5327 0 1.6079 0 1.6830 0 1.7581 0 1.8332 0
 H, KJ/KG         -859.93  -859.93  -859.93  -859.93  -859.93  -859.93  -859.93
 U, KJ/KG        -2162.24 -2163.56 -2164.80 -2165.97 -2167.08 -2168.13 -2169.13
 G, KJ/KG        -40945.2 -40931.7 -40918.3 -40905.2 -40892.3 -40879.5 -40867.0
 S, KJ/(KG)(K)    12.4004  12.3786  12.3580  12.3383  12.3196  12.3018  12.2846

 M, (1/n)          20.638   20.647   20.655   20.662   20.669   20.676   20.682
 (dLV/dLP)t      -1.01503 -1.01480 -1.01459 -1.01439 -1.01420 -1.01402 -1.01385
 (dLV/dLT)p        1.2819   1.2773   1.2730   1.2689   1.2651   1.2615   1.2580
 Cp, KJ/(KG)(K)    4.3058   4.2676   4.2318   4.1982   4.1665   4.1365   4.1081
 GAMMAs            1.1611   1.1616   1.1622   1.1627   1.1632   1.1637   1.1642
 SON VEL,M/SEC     1229.7   1230.6   1231.5   1232.3   1233.1   1233.8   1234.6

 MASS FRACTIONS

 *CO              0.56430  0.56430  0.56430  0.56431  0.56431  0.56431  0.56431
 *CO2             0.16296  0.16296  0.16295  0.16295  0.16294  0.16294  0.16294
 COOH             0.00001  0.00001  0.00001  0.00001  0.00001  0.00001  0.00001
 *H               0.00153  0.00150  0.00148  0.00146  0.00144  0.00142  0.00141
 HCO              0.00002  0.00002  0.00002  0.00002  0.00002  0.00002  0.00002
 HO2              0.00001  0.00001  0.00001  0.00001  0.00001  0.00001  0.00001
 *H2              0.01819  0.01819  0.01820  0.01820  0.01820  0.01820  0.01821
 H2O              0.23442  0.23469  0.23494  0.23518  0.23541  0.23563  0.23584
 *O               0.00136  0.00133  0.00130  0.00126  0.00123  0.00121  0.00118
 *OH              0.01567  0.01549  0.01533  0.01517  0.01502  0.01488  0.01474
 *O2              0.00153  0.00150  0.00146  0.00142  0.00139  0.00136  0.00133

  * THERMODYNAMIC PROPERTIES FITTED TO 20000.K

 NOTE. WEIGHT FRACTION OF FUEL IN TOTAL FUELS AND OF OXIDANT IN TOTAL OXIDANTS

         THERMODYNAMIC EQUILIBRIUM COMBUSTION PROPERTIES AT ASSIGNED

                                   PRESSURES

 CASE = _______________

             REACTANT                    WT FRACTION      ENERGY      TEMP
                                          (SEE NOTE)     KJ/KG-MOL      K  
 FUEL        RP-1                         1.0000000    -24717.700    298.150
 OXIDANT     O2(L)                        1.0000000    -12979.000     90.170

 O/F=    2.01000  %FUEL= 33.222591  R,EQ.RATIO= 1.694361  PHI,EQ.RATIO= 1.694361

 THERMODYNAMIC PROPERTIES

 P, BAR            10.000   11.000   12.000   13.000   14.000   15.000   16.000   17.000
 T, K             3188.50  3197.24  3205.16  3212.38  3219.02  3225.16  3230.86  3236.18
 RHO, KG/CU M    7.7672-1 8.5272-1 9.2860-1 1.0044 0 1.0800 0 1.1556 0 1.2311 0 1.3065 0
 H, KJ/KG         -858.42  -858.42  -858.42  -858.42  -858.42  -858.42  -858.42  -858.42
 U, KJ/KG        -2145.88 -2148.40 -2150.68 -2152.76 -2154.67 -2156.43 -2158.07 -2159.59
 G, KJ/KG        -41114.6 -41102.0 -41089.1 -41076.2 -41063.2 -41050.2 -41037.4 -41024.6
 S, KJ/(KG)(K)    12.6254  12.5869  12.5519  12.5196  12.4897  12.4620  12.4360  12.4116

 M, (1/n)          20.592   20.608   20.622   20.635   20.648   20.659   20.669   20.679
 (dLV/dLP)t      -1.01815 -1.01771 -1.01732 -1.01697 -1.01664 -1.01634 -1.01605 -1.01579
 (dLV/dLT)p        1.3448   1.3358   1.3277   1.3203   1.3135   1.3073   1.3015   1.2962
 Cp, KJ/(KG)(K)    4.8210   4.7434   4.6738   4.6109   4.5537   4.5012   4.4527   4.4079
 GAMMAs            1.1538   1.1548   1.1557   1.1565   1.1573   1.1580   1.1587   1.1594
 SON VEL,M/SEC     1218.8   1220.5   1222.1   1223.5   1224.8   1226.0   1227.2   1228.2

 MASS FRACTIONS

 *CO              0.56073  0.56073  0.56074  0.56074  0.56075  0.56075  0.56075  0.56075
 *CO2             0.16510  0.16509  0.16508  0.16507  0.16506  0.16506  0.16506  0.16506
 COOH             0.00001  0.00001  0.00001  0.00001  0.00001  0.00001  0.00001  0.00001
 *H               0.00180  0.00176  0.00172  0.00169  0.00165  0.00162  0.00160  0.00157
 HCO              0.00001  0.00001  0.00002  0.00002  0.00002  0.00002  0.00002  0.00002
 HO2              0.00001  0.00001  0.00001  0.00001  0.00001  0.00001  0.00001  0.00001
 *H2              0.01785  0.01786  0.01786  0.01787  0.01787  0.01787  0.01787  0.01788
 H2O              0.23223  0.23273  0.23319  0.23361  0.23400  0.23436  0.23469  0.23501
 *O               0.00191  0.00183  0.00176  0.00170  0.00165  0.00159  0.00155  0.00150
 *OH              0.01817  0.01787  0.01760  0.01734  0.01711  0.01689  0.01668  0.01648
 *O2              0.00218  0.00209  0.00201  0.00194  0.00188  0.00182  0.00177  0.00172

  * THERMODYNAMIC PROPERTIES FITTED TO 20000.K

 NOTE. WEIGHT FRACTION OF FUEL IN TOTAL FUELS AND OF OXIDANT IN TOTAL OXIDANTS

         THERMODYNAMIC EQUILIBRIUM COMBUSTION PROPERTIES AT ASSIGNED

                                   PRESSURES

 CASE = _______________

             REACTANT                    WT FRACTION      ENERGY      TEMP
                                          (SEE NOTE)     KJ/KG-MOL      K  
 FUEL        RP-1                         1.0000000    -24717.700    298.150
 OXIDANT     O2(L)                        1.0000000    -12979.000     90.170

 O/F=    2.01000  %FUEL= 33.222591  R,EQ.RATIO= 1.694361  PHI,EQ.RATIO= 1.694361

 THERMODYNAMIC PROPERTIES

 P, BAR            18.000   19.000   20.000   21.000   22.000   23.000   24.000
 T, K             3241.16  3245.84  3250.25  3254.43  3258.39  3262.14  3265.72
 RHO, KG/CU M    1.3819 0 1.4571 0 1.5323 0 1.6075 0 1.6826 0 1.7576 0 1.8326 0
 H, KJ/KG         -858.42  -858.42  -858.42  -858.42  -858.42  -858.42  -858.42
 U, KJ/KG        -2161.02 -2162.35 -2163.61 -2164.80 -2165.93 -2167.00 -2168.02
 G, KJ/KG        -41011.9 -40999.4 -40987.1 -40974.9 -40962.8 -40950.9 -40939.2
 S, KJ/(KG)(K)    12.3886  12.3669  12.3463  12.3267  12.3081  12.2902  12.2732

 M, (1/n)          20.688   20.697   20.705   20.713   20.720   20.727   20.734
 (dLV/dLP)t      -1.01555 -1.01532 -1.01510 -1.01489 -1.01470 -1.01451 -1.01434
 (dLV/dLT)p        1.2912   1.2865   1.2821   1.2779   1.2740   1.2703   1.2667
 Cp, KJ/(KG)(K)    4.3662   4.3272   4.2906   4.2562   4.2238   4.1932   4.1641
 GAMMAs            1.1600   1.1605   1.1611   1.1616   1.1621   1.1626   1.1630
 SON VEL,M/SEC     1229.2   1230.2   1231.0   1231.9   1232.7   1233.4   1234.2

 MASS FRACTIONS

 *CO              0.56075  0.56075  0.56075  0.56074  0.56074  0.56074  0.56074
 *CO2             0.16505  0.16505  0.16506  0.16506  0.16506  0.16506  0.16506
 COOH             0.00001  0.00001  0.00001  0.00001  0.00001  0.00001  0.00001
 *H               0.00155  0.00152  0.00150  0.00148  0.00146  0.00144  0.00143
 HCO              0.00002  0.00002  0.00002  0.00002  0.00002  0.00002  0.00002
 HO2              0.00001  0.00001  0.00001  0.00001  0.00001  0.00001  0.00001
 *H2              0.01788  0.01788  0.01788  0.01789  0.01789  0.01789  0.01789
 H2O              0.23530  0.23558  0.23584  0.23608  0.23632  0.23654  0.23675
 *O               0.00146  0.00142  0.00139  0.00136  0.00132  0.00130  0.00127
 *OH              0.01630  0.01612  0.01595  0.01579  0.01564  0.01549  0.01535
 *O2              0.00168  0.00164  0.00160  0.00156  0.00152  0.00149  0.00146

  * THERMODYNAMIC PROPERTIES FITTED TO 20000.K

 NOTE. WEIGHT FRACTION OF FUEL IN TOTAL FUELS AND OF OXIDANT IN TOTAL OXIDANTS

         THERMODYNAMIC EQUILIBRIUM COMBUSTION PROPERTIES AT ASSIGNED

                                   PRESSURES

 CASE = _______________

             REACTANT                    WT FRACTION      ENERGY      TEMP
                                          (SEE NOTE)     KJ/KG-MOL      K  
 FUEL        RP-1                         1.0000000    -24717.700    298.150
 OXIDANT     O2(L)                        1.0000000    -12979.000     90.170

 O/F=    2.02000  %FUEL= 33.112583  R,EQ.RATIO= 1.685973  PHI,EQ.RATIO= 1.685973

 THERMODYNAMIC PROPERTIES

 P, BAR            10.000   11.000   12.000   13.000   14.000   15.000   16.000   17.000
 T, K             3195.97  3204.85  3212.90  3220.24  3227.00  3233.24  3239.04  3244.45
 RHO, KG/CU M    7.7671-1 8.5269-1 9.2854-1 1.0043 0 1.0799 0 1.1555 0 1.2309 0 1.3063 0
 H, KJ/KG         -856.92  -856.92  -856.92  -856.92  -856.92  -856.92  -856.92  -856.92
 U, KJ/KG        -2144.39 -2146.95 -2149.26 -2151.37 -2153.31 -2155.09 -2156.75 -2158.29
 G, KJ/KG        -41168.0 -41157.0 -41145.7 -41134.2 -41122.5 -41110.8 -41099.1 -41087.5
 S, KJ/(KG)(K)    12.6131  12.5747  12.5397  12.5075  12.4777  12.4500  12.4241  12.3998

 M, (1/n)          20.640   20.656   20.671   20.684   20.697   20.708   20.719   20.729
 (dLV/dLP)t      -1.01873 -1.01828 -1.01789 -1.01752 -1.01719 -1.01688 -1.01659 -1.01632
 (dLV/dLT)p        1.3554   1.3462   1.3379   1.3304   1.3235   1.3171   1.3112   1.3057
 Cp, KJ/(KG)(K)    4.8912   4.8121   4.7412   4.6771   4.6187   4.5651   4.5157   4.4699
 GAMMAs            1.1528   1.1538   1.1547   1.1555   1.1563   1.1570   1.1577   1.1583
 SON VEL,M/SEC     1218.3   1220.0   1221.6   1223.0   1224.3   1225.6   1226.7   1227.8

 MASS FRACTIONS

 *CO              0.55723  0.55723  0.55723  0.55723  0.55723  0.55722  0.55722  0.55722
 *CO2             0.16713  0.16713  0.16713  0.16713  0.16713  0.16713  0.16714  0.16714
 COOH             0.00001  0.00001  0.00001  0.00001  0.00001  0.00001  0.00001  0.00001
 *H               0.00182  0.00178  0.00174  0.00170  0.00167  0.00164  0.00161  0.00159
 HCO              0.00001  0.00001  0.00002  0.00002  0.00002  0.00002  0.00002  0.00002
 HO2              0.00001  0.00001  0.00001  0.00001  0.00001  0.00001  0.00001  0.00001
 *H2              0.01755  0.01756  0.01756  0.01756  0.01757  0.01757  0.01757  0.01757
 H2O              0.23300  0.23352  0.23398  0.23441  0.23481  0.23518  0.23552  0.23584
 *O               0.00204  0.00195  0.00188  0.00182  0.00176  0.00170  0.00165  0.00161
 *OH              0.01883  0.01853  0.01825  0.01799  0.01775  0.01753  0.01732  0.01712
 *O2              0.00236  0.00227  0.00219  0.00212  0.00205  0.00199  0.00193  0.00188

  * THERMODYNAMIC PROPERTIES FITTED TO 20000.K

 NOTE. WEIGHT FRACTION OF FUEL IN TOTAL FUELS AND OF OXIDANT IN TOTAL OXIDANTS

         THERMODYNAMIC EQUILIBRIUM COMBUSTION PROPERTIES AT ASSIGNED

                                   PRESSURES

 CASE = _______________

             REACTANT                    WT FRACTION      ENERGY      TEMP
                                          (SEE NOTE)     KJ/KG-MOL      K  
 FUEL        RP-1                         1.0000000    -24717.700    298.150
 OXIDANT     O2(L)                        1.0000000    -12979.000     90.170

 O/F=    2.02000  %FUEL= 33.112583  R,EQ.RATIO= 1.685973  PHI,EQ.RATIO= 1.685973

 THERMODYNAMIC PROPERTIES

 P, BAR            18.000   19.000   20.000   21.000   22.000   23.000   24.000
 T, K             3249.53  3254.29  3258.79  3263.05  3267.08  3270.91  3274.56
 RHO, KG/CU M    1.3816 0 1.4569 0 1.5320 0 1.6071 0 1.6822 0 1.7572 0 1.8322 0
 H, KJ/KG         -856.92  -856.92  -856.92  -856.92  -856.92  -856.92  -856.92
 U, KJ/KG        -2159.74 -2161.10 -2162.37 -2163.58 -2164.73 -2165.81 -2166.85
 G, KJ/KG        -41075.9 -41064.4 -41053.0 -41041.7 -41030.5 -41019.4 -41008.5
 S, KJ/(KG)(K)    12.3769  12.3552  12.3347  12.3151  12.2965  12.2787  12.2617

 M, (1/n)          20.738   20.747   20.755   20.763   20.771   20.778   20.785
 (dLV/dLP)t      -1.01607 -1.01584 -1.01562 -1.01541 -1.01521 -1.01502 -1.01484
 (dLV/dLT)p        1.3006   1.2958   1.2913   1.2871   1.2831   1.2792   1.2756
 Cp, KJ/(KG)(K)    4.4273   4.3875   4.3502   4.3151   4.2820   4.2507   4.2210
 GAMMAs            1.1589   1.1595   1.1600   1.1605   1.1610   1.1615   1.1620
 SON VEL,M/SEC     1228.8   1229.7   1230.6   1231.4   1232.2   1233.0   1233.7

 MASS FRACTIONS

 *CO              0.55721  0.55721  0.55720  0.55720  0.55719  0.55719  0.55718
 *CO2             0.16715  0.16715  0.16716  0.16716  0.16717  0.16718  0.16718
 COOH             0.00001  0.00001  0.00001  0.00001  0.00001  0.00001  0.00001
 *H               0.00156  0.00154  0.00152  0.00150  0.00148  0.00146  0.00144
 HCO              0.00002  0.00002  0.00002  0.00002  0.00002  0.00002  0.00002
 HO2              0.00001  0.00001  0.00001  0.00001  0.00001  0.00001  0.00001
 *H2              0.01757  0.01758  0.01758  0.01758  0.01758  0.01758  0.01758
 H2O              0.23614  0.23642  0.23669  0.23694  0.23718  0.23741  0.23763
 *O               0.00156  0.00152  0.00149  0.00145  0.00142  0.00139  0.00136
 *OH              0.01693  0.01675  0.01658  0.01642  0.01626  0.01612  0.01597
 *O2              0.00183  0.00179  0.00174  0.00170  0.00167  0.00163  0.00160

  * THERMODYNAMIC PROPERTIES FITTED TO 20000.K

 NOTE. WEIGHT FRACTION OF FUEL IN TOTAL FUELS AND OF OXIDANT IN TOTAL OXIDANTS

         THERMODYNAMIC EQUILIBRIUM COMBUSTION PROPERTIES AT ASSIGNED

                                   PRESSURES

 CASE = _______________

             REACTANT                    WT FRACTION      ENERGY      TEMP
                                          (SEE NOTE)     KJ/KG-MOL      K  
 FUEL        RP-1                         1.0000000    -24717.700    298.150
 OXIDANT     O2(L)                        1.0000000    -12979.000     90.170

 O/F=    2.03000  %FUEL= 33.003300  R,EQ.RATIO= 1.677668  PHI,EQ.RATIO= 1.677668

 THERMODYNAMIC PROPERTIES

 P, BAR            10.000   11.000   12.000   13.000   14.000   15.000   16.000   17.000
 T, K             3203.24  3212.26  3220.43  3227.90  3234.76  3241.11  3247.01  3252.52
 RHO, KG/CU M    7.7674-1 8.5270-1 9.2853-1 1.0042 0 1.0799 0 1.1554 0 1.2308 0 1.3062 0
 H, KJ/KG         -855.43  -855.43  -855.43  -855.43  -855.43  -855.43  -855.43  -855.43
 U, KJ/KG        -2142.86 -2145.45 -2147.80 -2149.93 -2151.89 -2153.70 -2155.38 -2156.94
 G, KJ/KG        -41218.8 -41209.5 -41199.7 -41189.5 -41179.2 -41168.7 -41158.2 -41147.7
 S, KJ/(KG)(K)    12.6008  12.5625  12.5276  12.4955  12.4658  12.4381  12.4123  12.3880

 M, (1/n)          20.687   20.704   20.719   20.733   20.745   20.757   20.768   20.778
 (dLV/dLP)t      -1.01931 -1.01886 -1.01846 -1.01809 -1.01775 -1.01743 -1.01714 -1.01686
 (dLV/dLT)p        1.3661   1.3568   1.3483   1.3406   1.3336   1.3271   1.3211   1.3155
 Cp, KJ/(KG)(K)    4.9621   4.8815   4.8093   4.7440   4.6844   4.6298   4.5794   4.5327
 GAMMAs            1.1519   1.1528   1.1537   1.1545   1.1553   1.1560   1.1566   1.1573
 SON VEL,M/SEC     1217.8   1219.5   1221.1   1222.5   1223.8   1225.1   1226.2   1227.3

 MASS FRACTIONS

 *CO              0.55375  0.55374  0.55374  0.55373  0.55372  0.55371  0.55371  0.55370
 *CO2             0.16916  0.16917  0.16918  0.16918  0.16919  0.16920  0.16922  0.16923
 COOH             0.00001  0.00001  0.00001  0.00001  0.00001  0.00001  0.00001  0.00001
 *H               0.00184  0.00180  0.00176  0.00172  0.00169  0.00166  0.00163  0.00161
 HCO              0.00001  0.00001  0.00002  0.00002  0.00002  0.00002  0.00002  0.00002
 HO2              0.00001  0.00001  0.00001  0.00001  0.00001  0.00001  0.00001  0.00001
 *H2              0.01726  0.01726  0.01727  0.01727  0.01727  0.01727  0.01727  0.01727
 H2O              0.23373  0.23426  0.23474  0.23518  0.23558  0.23596  0.23631  0.23663
 *O               0.00216  0.00208  0.00200  0.00193  0.00187  0.00181  0.00176  0.00171
 *OH              0.01950  0.01919  0.01891  0.01865  0.01841  0.01818  0.01797  0.01776
 *O2              0.00256  0.00247  0.00238  0.00230  0.00223  0.00216  0.00210  0.00205

  * THERMODYNAMIC PROPERTIES FITTED TO 20000.K

 NOTE. WEIGHT FRACTION OF FUEL IN TOTAL FUELS AND OF OXIDANT IN TOTAL OXIDANTS

         THERMODYNAMIC EQUILIBRIUM COMBUSTION PROPERTIES AT ASSIGNED

                                   PRESSURES

 CASE = _______________

             REACTANT                    WT FRACTION      ENERGY      TEMP
                                          (SEE NOTE)     KJ/KG-MOL      K  
 FUEL        RP-1                         1.0000000    -24717.700    298.150
 OXIDANT     O2(L)                        1.0000000    -12979.000     90.170

 O/F=    2.03000  %FUEL= 33.003300  R,EQ.RATIO= 1.677668  PHI,EQ.RATIO= 1.677668

 THERMODYNAMIC PROPERTIES

 P, BAR            18.000   19.000   20.000   21.000   22.000   23.000   24.000
 T, K             3257.68  3262.54  3267.12  3271.45  3275.56  3279.46  3283.18
 RHO, KG/CU M    1.3814 0 1.4567 0 1.5318 0 1.6069 0 1.6819 0 1.7569 0 1.8318 0
 H, KJ/KG         -855.43  -855.43  -855.43  -855.43  -855.43  -855.43  -855.43
 U, KJ/KG        -2158.41 -2159.79 -2161.08 -2162.31 -2163.47 -2164.57 -2165.62
 G, KJ/KG        -41137.1 -41126.6 -41116.1 -41105.7 -41095.4 -41085.2 -41075.0
 S, KJ/(KG)(K)    12.3651  12.3435  12.3230  12.3035  12.2849  12.2672  12.2502

 M, (1/n)          20.788   20.797   20.805   20.813   20.821   20.828   20.835
 (dLV/dLP)t      -1.01661 -1.01637 -1.01614 -1.01593 -1.01572 -1.01553 -1.01535
 (dLV/dLT)p        1.3102   1.3053   1.3007   1.2964   1.2923   1.2884   1.2847
 Cp, KJ/(KG)(K)    4.4893   4.4486   4.4105   4.3747   4.3409   4.3089   4.2786
 GAMMAs            1.1579   1.1584   1.1590   1.1595   1.1600   1.1604   1.1609
 SON VEL,M/SEC     1228.3   1229.2   1230.1   1231.0   1231.8   1232.5   1233.3

 MASS FRACTIONS

 *CO              0.55369  0.55368  0.55367  0.55367  0.55366  0.55365  0.55364
 *CO2             0.16924  0.16925  0.16926  0.16927  0.16928  0.16929  0.16930
 COOH             0.00001  0.00001  0.00001  0.00001  0.00001  0.00001  0.00001
 *H               0.00158  0.00156  0.00154  0.00152  0.00150  0.00148  0.00146
 HCO              0.00002  0.00002  0.00002  0.00002  0.00002  0.00002  0.00002
 HO2              0.00001  0.00001  0.00001  0.00001  0.00001  0.00001  0.00001
 *H2              0.01727  0.01728  0.01728  0.01728  0.01728  0.01728  0.01728
 H2O              0.23694  0.23723  0.23750  0.23776  0.23801  0.23824  0.23846
 *O               0.00167  0.00163  0.00159  0.00155  0.00152  0.00148  0.00145
 *OH              0.01757  0.01739  0.01722  0.01705  0.01690  0.01674  0.01660
 *O2              0.00199  0.00195  0.00190  0.00186  0.00182  0.00178  0.00175

  * THERMODYNAMIC PROPERTIES FITTED TO 20000.K

 NOTE. WEIGHT FRACTION OF FUEL IN TOTAL FUELS AND OF OXIDANT IN TOTAL OXIDANTS

         THERMODYNAMIC EQUILIBRIUM COMBUSTION PROPERTIES AT ASSIGNED

                                   PRESSURES

 CASE = _______________

             REACTANT                    WT FRACTION      ENERGY      TEMP
                                          (SEE NOTE)     KJ/KG-MOL      K  
 FUEL        RP-1                         1.0000000    -24717.700    298.150
 OXIDANT     O2(L)                        1.0000000    -12979.000     90.170

 O/F=    2.04000  %FUEL= 32.894737  R,EQ.RATIO= 1.669444  PHI,EQ.RATIO= 1.669444

 THERMODYNAMIC PROPERTIES

 P, BAR            10.000   11.000   12.000   13.000   14.000   15.000   16.000   17.000
 T, K             3210.31  3219.47  3227.77  3235.35  3242.33  3248.78  3254.78  3260.38
 RHO, KG/CU M    7.7679-1 8.5274-1 9.2855-1 1.0043 0 1.0798 0 1.1553 0 1.2308 0 1.3061 0
 H, KJ/KG         -853.95  -853.95  -853.95  -853.95  -853.95  -853.95  -853.95  -853.95
 U, KJ/KG        -2141.29 -2143.91 -2146.28 -2148.44 -2150.42 -2152.26 -2153.96 -2155.55
 G, KJ/KG        -41267.0 -41259.3 -41251.0 -41242.2 -41233.2 -41224.0 -41214.6 -41205.1
 S, KJ/(KG)(K)    12.5885  12.5503  12.5155  12.4834  12.4538  12.4262  12.4004  12.3762

 M, (1/n)          20.734   20.751   20.767   20.781   20.794   20.806   20.817   20.827
 (dLV/dLP)t      -1.01991 -1.01945 -1.01904 -1.01866 -1.01831 -1.01799 -1.01769 -1.01741
 (dLV/dLT)p        1.3770   1.3675   1.3588   1.3510   1.3438   1.3372   1.3310   1.3253
 Cp, KJ/(KG)(K)    5.0337   4.9516   4.8781   4.8115   4.7509   4.6952   4.6439   4.5963
 GAMMAs            1.1509   1.1519   1.1528   1.1536   1.1543   1.1550   1.1557   1.1563
 SON VEL,M/SEC     1217.2   1219.0   1220.5   1222.0   1223.3   1224.6   1225.7   1226.8

 MASS FRACTIONS

 *CO              0.55028  0.55027  0.55026  0.55025  0.55024  0.55022  0.55021  0.55020
 *CO2             0.17119  0.17120  0.17122  0.17124  0.17125  0.17127  0.17129  0.17131
 COOH             0.00001  0.00001  0.00001  0.00001  0.00001  0.00001  0.00001  0.00001
 *H               0.00186  0.00182  0.00178  0.00174  0.00171  0.00168  0.00165  0.00162
 HCO              0.00001  0.00001  0.00002  0.00002  0.00002  0.00002  0.00002  0.00002
 HO2              0.00001  0.00001  0.00001  0.00001  0.00001  0.00001  0.00001  0.00001
 *H2              0.01697  0.01697  0.01698  0.01698  0.01698  0.01698  0.01698  0.01698
 H2O              0.23443  0.23496  0.23545  0.23590  0.23631  0.23670  0.23705  0.23739
 *O               0.00230  0.00221  0.00213  0.00206  0.00199  0.00193  0.00188  0.00183
 *OH              0.02017  0.01986  0.01958  0.01931  0.01907  0.01884  0.01862  0.01842
 *O2              0.00277  0.00267  0.00258  0.00249  0.00242  0.00235  0.00228  0.00222

  * THERMODYNAMIC PROPERTIES FITTED TO 20000.K

 NOTE. WEIGHT FRACTION OF FUEL IN TOTAL FUELS AND OF OXIDANT IN TOTAL OXIDANTS

         THERMODYNAMIC EQUILIBRIUM COMBUSTION PROPERTIES AT ASSIGNED

                                   PRESSURES

 CASE = _______________

             REACTANT                    WT FRACTION      ENERGY      TEMP
                                          (SEE NOTE)     KJ/KG-MOL      K  
 FUEL        RP-1                         1.0000000    -24717.700    298.150
 OXIDANT     O2(L)                        1.0000000    -12979.000     90.170

 O/F=    2.04000  %FUEL= 32.894737  R,EQ.RATIO= 1.669444  PHI,EQ.RATIO= 1.669444

 THERMODYNAMIC PROPERTIES

 P, BAR            18.000   19.000   20.000   21.000   22.000   23.000   24.000
 T, K             3265.63  3270.57  3275.23  3279.64  3283.83  3287.80  3291.59
 RHO, KG/CU M    1.3813 0 1.4565 0 1.5316 0 1.6067 0 1.6817 0 1.7566 0 1.8315 0
 H, KJ/KG         -853.95  -853.95  -853.95  -853.95  -853.95  -853.95  -853.95
 U, KJ/KG        -2157.03 -2158.43 -2159.74 -2160.99 -2162.16 -2163.28 -2164.35
 G, KJ/KG        -41195.6 -41186.1 -41176.6 -41167.1 -41157.6 -41148.2 -41138.8
 S, KJ/(KG)(K)    12.3534  12.3318  12.3114  12.2919  12.2734  12.2557  12.2387

 M, (1/n)          20.837   20.846   20.855   20.863   20.871   20.878   20.885
 (dLV/dLP)t      -1.01715 -1.01691 -1.01668 -1.01646 -1.01625 -1.01605 -1.01586
 (dLV/dLT)p        1.3200   1.3150   1.3103   1.3058   1.3016   1.2977   1.2939
 Cp, KJ/(KG)(K)    4.5520   4.5105   4.4717   4.4351   4.4006   4.3680   4.3370
 GAMMAs            1.1569   1.1574   1.1579   1.1584   1.1589   1.1594   1.1598
 SON VEL,M/SEC     1227.8   1228.7   1229.6   1230.5   1231.3   1232.1   1232.8

 MASS FRACTIONS

 *CO              0.55019  0.55018  0.55016  0.55015  0.55014  0.55013  0.55012
 *CO2             0.17132  0.17134  0.17136  0.17137  0.17139  0.17141  0.17142
 COOH             0.00001  0.00001  0.00001  0.00001  0.00001  0.00001  0.00001
 *H               0.00160  0.00158  0.00156  0.00153  0.00152  0.00150  0.00148
 HCO              0.00002  0.00002  0.00002  0.00002  0.00002  0.00002  0.00002
 HO2              0.00001  0.00001  0.00001  0.00001  0.00001  0.00001  0.00001
 *H2              0.01698  0.01698  0.01698  0.01698  0.01698  0.01698  0.01698
 H2O              0.23770  0.23800  0.23827  0.23854  0.23879  0.23903  0.23926
 *O               0.00178  0.00173  0.00169  0.00165  0.00162  0.00158  0.00155
 *OH              0.01822  0.01804  0.01786  0.01769  0.01753  0.01738  0.01723
 *O2              0.00217  0.00212  0.00207  0.00202  0.00198  0.00194  0.00190

  * THERMODYNAMIC PROPERTIES FITTED TO 20000.K

 NOTE. WEIGHT FRACTION OF FUEL IN TOTAL FUELS AND OF OXIDANT IN TOTAL OXIDANTS

         THERMODYNAMIC EQUILIBRIUM COMBUSTION PROPERTIES AT ASSIGNED

                                   PRESSURES

 CASE = _______________

             REACTANT                    WT FRACTION      ENERGY      TEMP
                                          (SEE NOTE)     KJ/KG-MOL      K  
 FUEL        RP-1                         1.0000000    -24717.700    298.150
 OXIDANT     O2(L)                        1.0000000    -12979.000     90.170

 O/F=    2.05000  %FUEL= 32.786885  R,EQ.RATIO= 1.661301  PHI,EQ.RATIO= 1.661301

 THERMODYNAMIC PROPERTIES

 P, BAR            10.000   11.000   12.000   13.000   14.000   15.000   16.000   17.000
 T, K             3217.19  3226.49  3234.91  3242.61  3249.70  3256.25  3262.35  3268.04
 RHO, KG/CU M    7.7688-1 8.5282-1 9.2862-1 1.0043 0 1.0799 0 1.1554 0 1.2308 0 1.3061 0
 H, KJ/KG         -852.48  -852.48  -852.48  -852.48  -852.48  -852.48  -852.48  -852.48
 U, KJ/KG        -2139.67 -2142.32 -2144.72 -2146.90 -2148.91 -2150.77 -2152.49 -2154.10
 G, KJ/KG        -41312.7 -41306.6 -41299.7 -41292.4 -41284.6 -41276.6 -41268.3 -41259.9
 S, KJ/(KG)(K)    12.5762  12.5381  12.5034  12.4714  12.4418  12.4143  12.3886  12.3644

 M, (1/n)          20.781   20.798   20.814   20.828   20.841   20.854   20.865   20.876
 (dLV/dLP)t      -1.02051 -1.02005 -1.01963 -1.01924 -1.01889 -1.01856 -1.01826 -1.01797
 (dLV/dLT)p        1.3880   1.3783   1.3695   1.3615   1.3542   1.3474   1.3412   1.3353
 Cp, KJ/(KG)(K)    5.1058   5.0224   4.9475   4.8798   4.8180   4.7613   4.7090   4.6605
 GAMMAs            1.1500   1.1510   1.1518   1.1526   1.1533   1.1540   1.1547   1.1553
 SON VEL,M/SEC     1216.7   1218.4   1220.0   1221.5   1222.8   1224.0   1225.2   1226.3

 MASS FRACTIONS

 *CO              0.54684  0.54682  0.54680  0.54679  0.54677  0.54675  0.54673  0.54672
 *CO2             0.17320  0.17323  0.17325  0.17328  0.17331  0.17333  0.17336  0.17338
 COOH             0.00001  0.00001  0.00001  0.00001  0.00001  0.00001  0.00001  0.00001
 *H               0.00188  0.00183  0.00179  0.00176  0.00172  0.00169  0.00167  0.00164
 HCO              0.00001  0.00001  0.00002  0.00002  0.00002  0.00002  0.00002  0.00002
 HO2              0.00001  0.00001  0.00001  0.00001  0.00001  0.00001  0.00001  0.00001
 *H2              0.01669  0.01669  0.01669  0.01669  0.01669  0.01669  0.01669  0.01669
 H2O              0.23509  0.23563  0.23613  0.23659  0.23701  0.23740  0.23776  0.23810
 *O               0.00243  0.00234  0.00226  0.00218  0.00211  0.00205  0.00199  0.00194
 *OH              0.02085  0.02053  0.02025  0.01998  0.01973  0.01950  0.01928  0.01907
 *O2              0.00300  0.00289  0.00279  0.00270  0.00262  0.00254  0.00248  0.00241

  * THERMODYNAMIC PROPERTIES FITTED TO 20000.K

 NOTE. WEIGHT FRACTION OF FUEL IN TOTAL FUELS AND OF OXIDANT IN TOTAL OXIDANTS

         THERMODYNAMIC EQUILIBRIUM COMBUSTION PROPERTIES AT ASSIGNED

                                   PRESSURES

 CASE = _______________

             REACTANT                    WT FRACTION      ENERGY      TEMP
                                          (SEE NOTE)     KJ/KG-MOL      K  
 FUEL        RP-1                         1.0000000    -24717.700    298.150
 OXIDANT     O2(L)                        1.0000000    -12979.000     90.170

 O/F=    2.05000  %FUEL= 32.786885  R,EQ.RATIO= 1.661301  PHI,EQ.RATIO= 1.661301

 THERMODYNAMIC PROPERTIES

 P, BAR            18.000   19.000   20.000   21.000   22.000   23.000   24.000
 T, K             3273.38  3278.40  3283.14  3287.63  3291.88  3295.93  3299.79
 RHO, KG/CU M    1.3813 0 1.4565 0 1.5315 0 1.6066 0 1.6815 0 1.7564 0 1.8313 0
 H, KJ/KG         -852.48  -852.48  -852.48  -852.48  -852.48  -852.48  -852.48
 U, KJ/KG        -2155.60 -2157.02 -2158.35 -2159.61 -2160.81 -2161.94 -2163.02
 G, KJ/KG        -41251.4 -41242.9 -41234.3 -41225.7 -41217.1 -41208.5 -41199.9
 S, KJ/(KG)(K)    12.3417  12.3201  12.2997  12.2803  12.2618  12.2442  12.2273

 M, (1/n)          20.886   20.895   20.904   20.912   20.920   20.928   20.935
 (dLV/dLP)t      -1.01771 -1.01745 -1.01722 -1.01699 -1.01678 -1.01658 -1.01639
 (dLV/dLT)p        1.3299   1.3248   1.3200   1.3155   1.3112   1.3071   1.3032
 Cp, KJ/(KG)(K)    4.6153   4.5731   4.5335   4.4962   4.4610   4.4278   4.3962
 GAMMAs            1.1559   1.1564   1.1569   1.1574   1.1579   1.1584   1.1588
 SON VEL,M/SEC     1227.3   1228.2   1229.2   1230.0   1230.8   1231.6   1232.3

 MASS FRACTIONS

 *CO              0.54670  0.54668  0.54667  0.54665  0.54664  0.54663  0.54661
 *CO2             0.17341  0.17343  0.17345  0.17347  0.17350  0.17352  0.17354
 COOH             0.00001  0.00001  0.00001  0.00001  0.00001  0.00001  0.00001
 *H               0.00162  0.00159  0.00157  0.00155  0.00153  0.00151  0.00150
 HCO              0.00002  0.00002  0.00002  0.00002  0.00002  0.00002  0.00002
 HO2              0.00001  0.00001  0.00001  0.00001  0.00001  0.00001  0.00001
 *H2              0.01669  0.01669  0.01669  0.01669  0.01669  0.01669  0.01669
 H2O              0.23842  0.23872  0.23901  0.23928  0.23954  0.23978  0.24001
 *O               0.00189  0.00185  0.00180  0.00176  0.00172  0.00169  0.00165
 *OH              0.01888  0.01869  0.01851  0.01834  0.01818  0.01802  0.01787
 *O2              0.00235  0.00230  0.00225  0.00220  0.00215  0.00211  0.00207

  * THERMODYNAMIC PROPERTIES FITTED TO 20000.K

 NOTE. WEIGHT FRACTION OF FUEL IN TOTAL FUELS AND OF OXIDANT IN TOTAL OXIDANTS

         THERMODYNAMIC EQUILIBRIUM COMBUSTION PROPERTIES AT ASSIGNED

                                   PRESSURES

 CASE = _______________

             REACTANT                    WT FRACTION      ENERGY      TEMP
                                          (SEE NOTE)     KJ/KG-MOL      K  
 FUEL        RP-1                         1.0000000    -24717.700    298.150
 OXIDANT     O2(L)                        1.0000000    -12979.000     90.170

 O/F=    2.06000  %FUEL= 32.679739  R,EQ.RATIO= 1.653236  PHI,EQ.RATIO= 1.653236

 THERMODYNAMIC PROPERTIES

 P, BAR            10.000   11.000   12.000   13.000   14.000   15.000   16.000   17.000
 T, K             3223.89  3233.31  3241.86  3249.67  3256.87  3263.52  3269.71  3275.50
 RHO, KG/CU M    7.7701-1 8.5293-1 9.2873-1 1.0044 0 1.0800 0 1.1554 0 1.2308 0 1.3061 0
 H, KJ/KG         -851.02  -851.02  -851.02  -851.02  -851.02  -851.02  -851.02  -851.02
 U, KJ/KG        -2138.01 -2140.69 -2143.11 -2145.32 -2147.36 -2149.23 -2150.98 -2152.61
 G, KJ/KG        -41355.9 -41351.4 -41346.0 -41340.0 -41333.5 -41326.6 -41319.5 -41312.2
 S, KJ/(KG)(K)    12.5640  12.5260  12.4913  12.4594  12.4299  12.4024  12.3768  12.3527

 M, (1/n)          20.828   20.845   20.861   20.876   20.889   20.901   20.913   20.924
 (dLV/dLP)t      -1.02112 -1.02065 -1.02022 -1.01983 -1.01947 -1.01914 -1.01883 -1.01854
 (dLV/dLT)p        1.3991   1.3892   1.3803   1.3721   1.3647   1.3578   1.3514   1.3455
 Cp, KJ/(KG)(K)    5.1785   5.0936   5.0175   4.9486   4.8857   4.8280   4.7748   4.7254
 GAMMAs            1.1491   1.1501   1.1509   1.1517   1.1524   1.1531   1.1537   1.1543
 SON VEL,M/SEC     1216.1   1217.9   1219.5   1220.9   1222.3   1223.5   1224.7   1225.8

 MASS FRACTIONS

 *CO              0.54341  0.54339  0.54336  0.54334  0.54332  0.54329  0.54327  0.54325
 *CO2             0.17521  0.17525  0.17528  0.17532  0.17535  0.17539  0.17542  0.17545
 COOH             0.00001  0.00001  0.00001  0.00001  0.00001  0.00001  0.00001  0.00001
 *H               0.00189  0.00185  0.00181  0.00177  0.00174  0.00171  0.00168  0.00166
 HCO              0.00001  0.00001  0.00002  0.00002  0.00002  0.00002  0.00002  0.00002
 HO2              0.00001  0.00001  0.00001  0.00001  0.00001  0.00001  0.00001  0.00001
 *H2              0.01641  0.01641  0.01641  0.01641  0.01641  0.01641  0.01641  0.01641
 H2O              0.23571  0.23626  0.23677  0.23723  0.23766  0.23806  0.23843  0.23878
 *O               0.00258  0.00248  0.00239  0.00231  0.00224  0.00218  0.00212  0.00206
 *OH              0.02152  0.02121  0.02092  0.02065  0.02040  0.02017  0.01994  0.01973
 *O2              0.00323  0.00311  0.00301  0.00292  0.00283  0.00275  0.00268  0.00261

  * THERMODYNAMIC PROPERTIES FITTED TO 20000.K

 NOTE. WEIGHT FRACTION OF FUEL IN TOTAL FUELS AND OF OXIDANT IN TOTAL OXIDANTS

         THERMODYNAMIC EQUILIBRIUM COMBUSTION PROPERTIES AT ASSIGNED

                                   PRESSURES

 CASE = _______________

             REACTANT                    WT FRACTION      ENERGY      TEMP
                                          (SEE NOTE)     KJ/KG-MOL      K  
 FUEL        RP-1                         1.0000000    -24717.700    298.150
 OXIDANT     O2(L)                        1.0000000    -12979.000     90.170

 O/F=    2.06000  %FUEL= 32.679739  R,EQ.RATIO= 1.653236  PHI,EQ.RATIO= 1.653236

 THERMODYNAMIC PROPERTIES

 P, BAR            18.000   19.000   20.000   21.000   22.000   23.000   24.000
 T, K             3280.92  3286.03  3290.85  3295.41  3299.74  3303.86  3307.78
 RHO, KG/CU M    1.3813 0 1.4564 0 1.5315 0 1.6065 0 1.6815 0 1.7564 0 1.8312 0
 H, KJ/KG         -851.02  -851.02  -851.02  -851.02  -851.02  -851.02  -851.02
 U, KJ/KG        -2154.13 -2155.56 -2156.91 -2158.19 -2159.40 -2160.55 -2161.65
 G, KJ/KG        -41304.7 -41297.1 -41289.4 -41281.7 -41273.9 -41266.1 -41258.3
 S, KJ/(KG)(K)    12.3300  12.3085  12.2881  12.2688  12.2503  12.2327  12.2158

 M, (1/n)          20.934   20.943   20.953   20.961   20.969   20.977   20.984
 (dLV/dLP)t      -1.01827 -1.01801 -1.01777 -1.01754 -1.01733 -1.01712 -1.01692
 (dLV/dLT)p        1.3399   1.3347   1.3298   1.3252   1.3208   1.3167   1.3127
 Cp, KJ/(KG)(K)    4.6794   4.6364   4.5960   4.5580   4.5222   4.4882   4.4561
 GAMMAs            1.1549   1.1554   1.1560   1.1565   1.1569   1.1574   1.1578
 SON VEL,M/SEC     1226.8   1227.7   1228.6   1229.5   1230.3   1231.1   1231.9

 MASS FRACTIONS

 *CO              0.54323  0.54321  0.54319  0.54317  0.54315  0.54314  0.54312
 *CO2             0.17548  0.17551  0.17554  0.17557  0.17560  0.17562  0.17565
 COOH             0.00001  0.00001  0.00001  0.00001  0.00001  0.00001  0.00001
 *H               0.00163  0.00161  0.00159  0.00157  0.00155  0.00153  0.00151
 HCO              0.00002  0.00002  0.00002  0.00002  0.00002  0.00002  0.00002
 HO2              0.00001  0.00001  0.00001  0.00001  0.00001  0.00001  0.00001
 *H2              0.01641  0.01641  0.01641  0.01641  0.01641  0.01641  0.01641
 H2O              0.23911  0.23941  0.23970  0.23998  0.24024  0.24049  0.24073
 *O               0.00201  0.00196  0.00192  0.00187  0.00183  0.00180  0.00176
 *OH              0.01953  0.01935  0.01917  0.01899  0.01883  0.01867  0.01852
 *O2              0.00255  0.00249  0.00244  0.00238  0.00234  0.00229  0.00225

  * THERMODYNAMIC PROPERTIES FITTED TO 20000.K

 NOTE. WEIGHT FRACTION OF FUEL IN TOTAL FUELS AND OF OXIDANT IN TOTAL OXIDANTS

         THERMODYNAMIC EQUILIBRIUM COMBUSTION PROPERTIES AT ASSIGNED

                                   PRESSURES

 CASE = _______________

             REACTANT                    WT FRACTION      ENERGY      TEMP
                                          (SEE NOTE)     KJ/KG-MOL      K  
 FUEL        RP-1                         1.0000000    -24717.700    298.150
 OXIDANT     O2(L)                        1.0000000    -12979.000     90.170

 O/F=    2.07000  %FUEL= 32.573290  R,EQ.RATIO= 1.645249  PHI,EQ.RATIO= 1.645249

 THERMODYNAMIC PROPERTIES

 P, BAR            10.000   11.000   12.000   13.000   14.000   15.000   16.000   17.000
 T, K             3230.39  3239.95  3248.62  3256.54  3263.84  3270.60  3276.88  3282.76
 RHO, KG/CU M    7.7716-1 8.5308-1 9.2887-1 1.0045 0 1.0801 0 1.1555 0 1.2309 0 1.3062 0
 H, KJ/KG         -849.57  -849.57  -849.57  -849.57  -849.57  -849.57  -849.57  -849.57
 U, KJ/KG        -2136.31 -2139.01 -2141.46 -2143.70 -2145.75 -2147.65 -2149.42 -2151.07
 G, KJ/KG        -41396.8 -41393.7 -41389.8 -41385.1 -41379.8 -41374.1 -41368.1 -41361.8
 S, KJ/(KG)(K)    12.5518  12.5138  12.4792  12.4474  12.4180  12.3906  12.3650  12.3409

 M, (1/n)          20.874   20.892   20.908   20.923   20.936   20.949   20.961   20.972
 (dLV/dLP)t      -1.02174 -1.02126 -1.02082 -1.02043 -1.02006 -1.01972 -1.01941 -1.01911
 (dLV/dLT)p        1.4104   1.4003   1.3912   1.3829   1.3753   1.3683   1.3618   1.3558
 Cp, KJ/(KG)(K)    5.2516   5.1654   5.0880   5.0179   4.9540   4.8953   4.8411   4.7909
 GAMMAs            1.1483   1.1492   1.1500   1.1508   1.1515   1.1522   1.1528   1.1534
 SON VEL,M/SEC     1215.5   1217.3   1218.9   1220.4   1221.7   1223.0   1224.1   1225.2

 MASS FRACTIONS

 *CO              0.54001  0.53998  0.53994  0.53991  0.53988  0.53986  0.53983  0.53980
 *CO2             0.17721  0.17726  0.17731  0.17735  0.17740  0.17744  0.17748  0.17752
 COOH             0.00001  0.00001  0.00001  0.00001  0.00001  0.00001  0.00001  0.00001
 *H               0.00191  0.00186  0.00182  0.00179  0.00176  0.00173  0.00170  0.00167
 HCO              0.00001  0.00001  0.00002  0.00002  0.00002  0.00002  0.00002  0.00002
 HO2              0.00001  0.00001  0.00001  0.00001  0.00001  0.00001  0.00001  0.00001
 *H2              0.01614  0.01614  0.01614  0.01614  0.01614  0.01614  0.01614  0.01614
 H2O              0.23629  0.23686  0.23737  0.23785  0.23828  0.23869  0.23907  0.23942
 *O               0.00272  0.00262  0.00253  0.00245  0.00238  0.00231  0.00224  0.00219
 *OH              0.02220  0.02189  0.02160  0.02133  0.02107  0.02084  0.02061  0.02040
 *O2              0.00348  0.00336  0.00325  0.00315  0.00306  0.00297  0.00290  0.00282

  * THERMODYNAMIC PROPERTIES FITTED TO 20000.K

 NOTE. WEIGHT FRACTION OF FUEL IN TOTAL FUELS AND OF OXIDANT IN TOTAL OXIDANTS

         THERMODYNAMIC EQUILIBRIUM COMBUSTION PROPERTIES AT ASSIGNED

                                   PRESSURES

 CASE = _______________

             REACTANT                    WT FRACTION      ENERGY      TEMP
                                          (SEE NOTE)     KJ/KG-MOL      K  
 FUEL        RP-1                         1.0000000    -24717.700    298.150
 OXIDANT     O2(L)                        1.0000000    -12979.000     90.170

 O/F=    2.07000  %FUEL= 32.573290  R,EQ.RATIO= 1.645249  PHI,EQ.RATIO= 1.645249

 THERMODYNAMIC PROPERTIES

 P, BAR            18.000   19.000   20.000   21.000   22.000   23.000   24.000
 T, K             3288.27  3293.46  3298.35  3302.99  3307.39  3311.58  3315.57
 RHO, KG/CU M    1.3814 0 1.4565 0 1.5316 0 1.6065 0 1.6815 0 1.7563 0 1.8311 0
 H, KJ/KG         -849.57  -849.57  -849.57  -849.57  -849.57  -849.57  -849.57
 U, KJ/KG        -2152.61 -2154.06 -2155.43 -2156.72 -2157.95 -2159.11 -2160.22
 G, KJ/KG        -41355.3 -41348.7 -41341.9 -41335.0 -41328.1 -41321.1 -41314.1
 S, KJ/(KG)(K)    12.3183  12.2968  12.2765  12.2572  12.2388  12.2212  12.2044

 M, (1/n)          20.982   20.992   21.001   21.010   21.018   21.026   21.033
 (dLV/dLP)t      -1.01883 -1.01857 -1.01833 -1.01810 -1.01788 -1.01767 -1.01747
 (dLV/dLT)p        1.3501   1.3448   1.3398   1.3351   1.3306   1.3264   1.3224
 Cp, KJ/(KG)(K)    4.7440   4.7002   4.6591   4.6205   4.5839   4.5494   4.5166
 GAMMAs            1.1540   1.1545   1.1550   1.1555   1.1560   1.1564   1.1568
 SON VEL,M/SEC     1226.2   1227.2   1228.1   1229.0   1229.8   1230.6   1231.3

 MASS FRACTIONS

 *CO              0.53978  0.53975  0.53973  0.53971  0.53969  0.53966  0.53964
 *CO2             0.17756  0.17759  0.17763  0.17766  0.17769  0.17773  0.17776
 COOH             0.00001  0.00001  0.00001  0.00001  0.00001  0.00001  0.00001
 *H               0.00165  0.00162  0.00160  0.00158  0.00156  0.00154  0.00153
 HCO              0.00002  0.00002  0.00002  0.00002  0.00002  0.00002  0.00002
 HO2              0.00001  0.00001  0.00001  0.00001  0.00001  0.00001  0.00001
 *H2              0.01613  0.01613  0.01613  0.01613  0.01613  0.01613  0.01613
 H2O              0.23975  0.24007  0.24036  0.24064  0.24091  0.24117  0.24141
 *O               0.00213  0.00208  0.00204  0.00199  0.00195  0.00191  0.00187
 *OH              0.02020  0.02001  0.01983  0.01965  0.01949  0.01933  0.01917
 *O2              0.00276  0.00270  0.00264  0.00258  0.00253  0.00248  0.00244

  * THERMODYNAMIC PROPERTIES FITTED TO 20000.K

 NOTE. WEIGHT FRACTION OF FUEL IN TOTAL FUELS AND OF OXIDANT IN TOTAL OXIDANTS

         THERMODYNAMIC EQUILIBRIUM COMBUSTION PROPERTIES AT ASSIGNED

                                   PRESSURES

 CASE = _______________

             REACTANT                    WT FRACTION      ENERGY      TEMP
                                          (SEE NOTE)     KJ/KG-MOL      K  
 FUEL        RP-1                         1.0000000    -24717.700    298.150
 OXIDANT     O2(L)                        1.0000000    -12979.000     90.170

 O/F=    2.08000  %FUEL= 32.467532  R,EQ.RATIO= 1.637340  PHI,EQ.RATIO= 1.637340

 THERMODYNAMIC PROPERTIES

 P, BAR            10.000   11.000   12.000   13.000   14.000   15.000   16.000   17.000
 T, K             3236.72  3246.40  3255.19  3263.23  3270.63  3277.48  3283.86  3289.83
 RHO, KG/CU M    7.7734-1 8.5326-1 9.2905-1 1.0047 0 1.0803 0 1.1557 0 1.2311 0 1.3063 0
 H, KJ/KG         -848.13  -848.13  -848.13  -848.13  -848.13  -848.13  -848.13  -848.13
 U, KJ/KG        -2134.56 -2137.30 -2139.77 -2142.03 -2144.11 -2146.03 -2147.82 -2149.48
 G, KJ/KG        -41435.2 -41433.7 -41431.2 -41427.8 -41423.7 -41419.2 -41414.3 -41409.0
 S, KJ/(KG)(K)    12.5396  12.5017  12.4672  12.4354  12.4061  12.3787  12.3532  12.3292

 M, (1/n)          20.920   20.938   20.954   20.969   20.983   20.996   21.008   21.019
 (dLV/dLP)t      -1.02236 -1.02188 -1.02143 -1.02103 -1.02066 -1.02031 -1.01999 -1.01969
 (dLV/dLT)p        1.4217   1.4115   1.4022   1.3938   1.3861   1.3789   1.3723   1.3662
 Cp, KJ/(KG)(K)    5.3252   5.2376   5.1590   5.0878   5.0228   4.9631   4.9080   4.8569
 GAMMAs            1.1474   1.1483   1.1492   1.1499   1.1506   1.1513   1.1519   1.1525
 SON VEL,M/SEC     1215.0   1216.7   1218.3   1219.8   1221.1   1222.4   1223.6   1224.7

 MASS FRACTIONS

 *CO              0.53662  0.53658  0.53654  0.53651  0.53647  0.53644  0.53640  0.53637
 *CO2             0.17920  0.17926  0.17932  0.17938  0.17943  0.17948  0.17953  0.17958
 COOH             0.00001  0.00001  0.00001  0.00001  0.00001  0.00001  0.00001  0.00001
 *H               0.00192  0.00188  0.00184  0.00180  0.00177  0.00174  0.00171  0.00169
 HCO              0.00001  0.00001  0.00002  0.00002  0.00002  0.00002  0.00002  0.00002
 HO2              0.00001  0.00001  0.00001  0.00001  0.00001  0.00001  0.00001  0.00001
 *H2              0.01588  0.01588  0.01587  0.01587  0.01587  0.01587  0.01587  0.01586
 H2O              0.23685  0.23742  0.23794  0.23842  0.23887  0.23928  0.23966  0.24002
 *O               0.00287  0.00277  0.00267  0.00259  0.00251  0.00244  0.00238  0.00232
 *OH              0.02289  0.02257  0.02228  0.02200  0.02175  0.02151  0.02128  0.02107
 *O2              0.00374  0.00361  0.00349  0.00339  0.00329  0.00320  0.00312  0.00305

  * THERMODYNAMIC PROPERTIES FITTED TO 20000.K

 NOTE. WEIGHT FRACTION OF FUEL IN TOTAL FUELS AND OF OXIDANT IN TOTAL OXIDANTS

         THERMODYNAMIC EQUILIBRIUM COMBUSTION PROPERTIES AT ASSIGNED

                                   PRESSURES

 CASE = _______________

             REACTANT                    WT FRACTION      ENERGY      TEMP
                                          (SEE NOTE)     KJ/KG-MOL      K  
 FUEL        RP-1                         1.0000000    -24717.700    298.150
 OXIDANT     O2(L)                        1.0000000    -12979.000     90.170

 O/F=    2.08000  %FUEL= 32.467532  R,EQ.RATIO= 1.637340  PHI,EQ.RATIO= 1.637340

 THERMODYNAMIC PROPERTIES

 P, BAR            18.000   19.000   20.000   21.000   22.000   23.000   24.000
 T, K             3295.42  3300.69  3305.66  3310.37  3314.84  3319.10  3323.15
 RHO, KG/CU M    1.3815 0 1.4566 0 1.5317 0 1.6066 0 1.6815 0 1.7564 0 1.8312 0
 H, KJ/KG         -848.13  -848.13  -848.13  -848.13  -848.13  -848.13  -848.13
 U, KJ/KG        -2151.04 -2152.51 -2153.90 -2155.21 -2156.45 -2157.63 -2158.75
 G, KJ/KG        -41403.5 -41397.8 -41391.9 -41385.9 -41379.7 -41373.5 -41367.3
 S, KJ/(KG)(K)    12.3066  12.2852  12.2650  12.2457  12.2273  12.2098  12.1930

 M, (1/n)          21.030   21.039   21.049   21.058   21.066   21.074   21.082
 (dLV/dLP)t      -1.01941 -1.01915 -1.01890 -1.01866 -1.01844 -1.01822 -1.01802
 (dLV/dLT)p        1.3604   1.3550   1.3499   1.3451   1.3406   1.3362   1.3321
 Cp, KJ/(KG)(K)    4.8093   4.7647   4.7229   4.6835   4.6463   4.6111   4.5777
 GAMMAs            1.1531   1.1536   1.1541   1.1546   1.1550   1.1555   1.1559
 SON VEL,M/SEC     1225.7   1226.7   1227.6   1228.5   1229.3   1230.1   1230.8

 MASS FRACTIONS

 *CO              0.53634  0.53632  0.53629  0.53626  0.53624  0.53621  0.53619
 *CO2             0.17962  0.17966  0.17971  0.17975  0.17979  0.17982  0.17986
 COOH             0.00001  0.00001  0.00001  0.00001  0.00001  0.00001  0.00001
 *H               0.00166  0.00164  0.00162  0.00160  0.00158  0.00156  0.00154
 HCO              0.00002  0.00002  0.00002  0.00002  0.00002  0.00002  0.00002
 HO2              0.00001  0.00001  0.00001  0.00001  0.00001  0.00001  0.00001
 *H2              0.01586  0.01586  0.01586  0.01586  0.01586  0.01586  0.01586
 H2O              0.24036  0.24068  0.24098  0.24127  0.24154  0.24180  0.24205
 *O               0.00226  0.00221  0.00216  0.00211  0.00207  0.00203  0.00199
 *OH              0.02087  0.02067  0.02049  0.02031  0.02015  0.01998  0.01983
 *O2              0.00298  0.00291  0.00285  0.00279  0.00274  0.00268  0.00264

  * THERMODYNAMIC PROPERTIES FITTED TO 20000.K

 NOTE. WEIGHT FRACTION OF FUEL IN TOTAL FUELS AND OF OXIDANT IN TOTAL OXIDANTS

         THERMODYNAMIC EQUILIBRIUM COMBUSTION PROPERTIES AT ASSIGNED

                                   PRESSURES

 CASE = _______________

             REACTANT                    WT FRACTION      ENERGY      TEMP
                                          (SEE NOTE)     KJ/KG-MOL      K  
 FUEL        RP-1                         1.0000000    -24717.700    298.150
 OXIDANT     O2(L)                        1.0000000    -12979.000     90.170

 O/F=    2.09000  %FUEL= 32.362460  R,EQ.RATIO= 1.629505  PHI,EQ.RATIO= 1.629505

 THERMODYNAMIC PROPERTIES

 P, BAR            10.000   11.000   12.000   13.000   14.000   15.000   16.000   17.000
 T, K             3242.87  3252.67  3261.58  3269.72  3277.23  3284.18  3290.65  3296.70
 RHO, KG/CU M    7.7755-1 8.5348-1 9.2926-1 1.0049 0 1.0805 0 1.1559 0 1.2313 0 1.3065 0
 H, KJ/KG         -846.69  -846.69  -846.69  -846.69  -846.69  -846.69  -846.69  -846.69
 U, KJ/KG        -2132.78 -2135.54 -2138.04 -2140.33 -2142.43 -2144.37 -2146.17 -2147.86
 G, KJ/KG        -41471.4 -41471.4 -41470.2 -41468.1 -41465.3 -41461.9 -41458.0 -41453.7
 S, KJ/(KG)(K)    12.5274  12.4896  12.4552  12.4235  12.3942  12.3669  12.3414  12.3175

 M, (1/n)          20.965   20.983   21.000   21.015   21.029   21.043   21.055   21.066
 (dLV/dLP)t      -1.02299 -1.02250 -1.02205 -1.02164 -1.02126 -1.02091 -1.02059 -1.02028
 (dLV/dLT)p        1.4332   1.4228   1.4134   1.4048   1.3969   1.3897   1.3830   1.3767
 Cp, KJ/(KG)(K)    5.3991   5.3102   5.2304   5.1581   5.0920   5.0314   4.9754   4.9234
 GAMMAs            1.1466   1.1475   1.1483   1.1491   1.1498   1.1504   1.1510   1.1516
 SON VEL,M/SEC     1214.4   1216.1   1217.7   1219.2   1220.6   1221.8   1223.0   1224.1

 MASS FRACTIONS

 *CO              0.53325  0.53321  0.53316  0.53312  0.53308  0.53304  0.53300  0.53296
 *CO2             0.18118  0.18126  0.18133  0.18139  0.18145  0.18151  0.18157  0.18163
 COOH             0.00001  0.00001  0.00001  0.00001  0.00001  0.00001  0.00001  0.00001
 *H               0.00193  0.00189  0.00185  0.00182  0.00178  0.00175  0.00173  0.00170
 HCO              0.00001  0.00001  0.00002  0.00002  0.00002  0.00002  0.00002  0.00002
 HO2              0.00001  0.00001  0.00001  0.00001  0.00001  0.00001  0.00001  0.00001
 *H2              0.01562  0.01562  0.01561  0.01561  0.01561  0.01560  0.01560  0.01560
 H2O              0.23737  0.23795  0.23848  0.23897  0.23942  0.23984  0.24023  0.24059
 *O               0.00303  0.00292  0.00282  0.00273  0.00265  0.00258  0.00251  0.00245
 *OH              0.02357  0.02325  0.02296  0.02268  0.02243  0.02218  0.02196  0.02174
 *O2              0.00401  0.00388  0.00375  0.00364  0.00354  0.00345  0.00336  0.00328

  * THERMODYNAMIC PROPERTIES FITTED TO 20000.K

 NOTE. WEIGHT FRACTION OF FUEL IN TOTAL FUELS AND OF OXIDANT IN TOTAL OXIDANTS

         THERMODYNAMIC EQUILIBRIUM COMBUSTION PROPERTIES AT ASSIGNED

                                   PRESSURES

 CASE = _______________

             REACTANT                    WT FRACTION      ENERGY      TEMP
                                          (SEE NOTE)     KJ/KG-MOL      K  
 FUEL        RP-1                         1.0000000    -24717.700    298.150
 OXIDANT     O2(L)                        1.0000000    -12979.000     90.170

 O/F=    2.09000  %FUEL= 32.362460  R,EQ.RATIO= 1.629505  PHI,EQ.RATIO= 1.629505

 THERMODYNAMIC PROPERTIES

 P, BAR            18.000   19.000   20.000   21.000   22.000   23.000   24.000
 T, K             3302.38  3307.72  3312.77  3317.56  3322.10  3326.42  3330.54
 RHO, KG/CU M    1.3817 0 1.4568 0 1.5318 0 1.6068 0 1.6817 0 1.7565 0 1.8313 0
 H, KJ/KG         -846.69  -846.69  -846.69  -846.69  -846.69  -846.69  -846.69
 U, KJ/KG        -2149.44 -2150.92 -2152.32 -2153.65 -2154.90 -2156.10 -2157.24
 G, KJ/KG        -41449.2 -41444.4 -41439.4 -41434.2 -41428.9 -41423.4 -41417.9
 S, KJ/(KG)(K)    12.2949  12.2736  12.2534  12.2342  12.2158  12.1983  12.1816

 M, (1/n)          21.077   21.087   21.096   21.105   21.114   21.122   21.130
 (dLV/dLP)t      -1.02000 -1.01973 -1.01947 -1.01923 -1.01900 -1.01879 -1.01858
 (dLV/dLT)p        1.3708   1.3653   1.3602   1.3553   1.3506   1.3462   1.3420
 Cp, KJ/(KG)(K)    4.8750   4.8297   4.7871   4.7471   4.7093   4.6734   4.6395
 GAMMAs            1.1522   1.1527   1.1532   1.1537   1.1541   1.1546   1.1550
 SON VEL,M/SEC     1225.1   1226.1   1227.0   1227.9   1228.7   1229.5   1230.3

 MASS FRACTIONS

 *CO              0.53293  0.53289  0.53286  0.53283  0.53280  0.53277  0.53275
 *CO2             0.18168  0.18173  0.18178  0.18183  0.18187  0.18192  0.18196
 COOH             0.00001  0.00001  0.00001  0.00001  0.00001  0.00001  0.00001
 *H               0.00168  0.00165  0.00163  0.00161  0.00159  0.00157  0.00156
 HCO              0.00002  0.00002  0.00002  0.00002  0.00002  0.00002  0.00002
 HO2              0.00001  0.00001  0.00001  0.00001  0.00001  0.00001  0.00001
 *H2              0.01560  0.01560  0.01559  0.01559  0.01559  0.01559  0.01559
 H2O              0.24094  0.24126  0.24157  0.24186  0.24214  0.24240  0.24266
 *O               0.00239  0.00233  0.00228  0.00224  0.00219  0.00215  0.00211
 *OH              0.02154  0.02134  0.02116  0.02098  0.02081  0.02065  0.02049
 *O2              0.00321  0.00314  0.00307  0.00301  0.00295  0.00290  0.00285

  * THERMODYNAMIC PROPERTIES FITTED TO 20000.K

 NOTE. WEIGHT FRACTION OF FUEL IN TOTAL FUELS AND OF OXIDANT IN TOTAL OXIDANTS

         THERMODYNAMIC EQUILIBRIUM COMBUSTION PROPERTIES AT ASSIGNED

                                   PRESSURES

 CASE = _______________

             REACTANT                    WT FRACTION      ENERGY      TEMP
                                          (SEE NOTE)     KJ/KG-MOL      K  
 FUEL        RP-1                         1.0000000    -24717.700    298.150
 OXIDANT     O2(L)                        1.0000000    -12979.000     90.170

 O/F=    2.10000  %FUEL= 32.258065  R,EQ.RATIO= 1.621746  PHI,EQ.RATIO= 1.621746

 THERMODYNAMIC PROPERTIES

 P, BAR            10.000   11.000   12.000   13.000   14.000   15.000   16.000   17.000
 T, K             3248.84  3258.77  3267.79  3276.04  3283.65  3290.69  3297.25  3303.39
 RHO, KG/CU M    7.7779-1 8.5372-1 9.2951-1 1.0052 0 1.0807 0 1.1562 0 1.2315 0 1.3068 0
 H, KJ/KG         -845.27  -845.27  -845.27  -845.27  -845.27  -845.27  -845.27  -845.27
 U, KJ/KG        -2130.96 -2133.75 -2136.27 -2138.58 -2140.70 -2142.66 -2144.49 -2146.19
 G, KJ/KG        -41505.3 -41506.8 -41506.9 -41506.1 -41504.4 -41502.1 -41499.3 -41496.1
 S, KJ/(KG)(K)    12.5153  12.4776  12.4432  12.4116  12.3823  12.3551  12.3297  12.3058

 M, (1/n)          21.010   21.029   21.046   21.061   21.076   21.089   21.101   21.113
 (dLV/dLP)t      -1.02363 -1.02313 -1.02267 -1.02225 -1.02187 -1.02152 -1.02119 -1.02088
 (dLV/dLT)p        1.4447   1.4341   1.4246   1.4159   1.4079   1.4005   1.3937   1.3873
 Cp, KJ/(KG)(K)    5.4733   5.3831   5.3021   5.2287   5.1617   5.1001   5.0432   4.9904
 GAMMAs            1.1458   1.1467   1.1475   1.1482   1.1489   1.1496   1.1502   1.1508
 SON VEL,M/SEC     1213.8   1215.5   1217.1   1218.6   1220.0   1221.3   1222.4   1223.5

 MASS FRACTIONS

 *CO              0.52991  0.52985  0.52980  0.52975  0.52970  0.52965  0.52961  0.52957
 *CO2             0.18316  0.18324  0.18332  0.18340  0.18347  0.18354  0.18361  0.18367
 COOH             0.00001  0.00001  0.00001  0.00001  0.00001  0.00001  0.00001  0.00001
 *H               0.00195  0.00190  0.00186  0.00183  0.00180  0.00177  0.00174  0.00171
 HCO              0.00001  0.00001  0.00002  0.00002  0.00002  0.00002  0.00002  0.00002
 HO2              0.00001  0.00001  0.00001  0.00001  0.00001  0.00001  0.00001  0.00001
 *H2              0.01537  0.01536  0.01536  0.01535  0.01535  0.01535  0.01534  0.01534
 H2O              0.23785  0.23844  0.23898  0.23948  0.23993  0.24036  0.24076  0.24113
 *O               0.00319  0.00307  0.00297  0.00288  0.00280  0.00272  0.00265  0.00258
 *OH              0.02426  0.02394  0.02364  0.02336  0.02310  0.02286  0.02263  0.02242
 *O2              0.00430  0.00416  0.00403  0.00391  0.00381  0.00371  0.00362  0.00353

  * THERMODYNAMIC PROPERTIES FITTED TO 20000.K

 NOTE. WEIGHT FRACTION OF FUEL IN TOTAL FUELS AND OF OXIDANT IN TOTAL OXIDANTS

         THERMODYNAMIC EQUILIBRIUM COMBUSTION PROPERTIES AT ASSIGNED

                                   PRESSURES

 CASE = _______________

             REACTANT                    WT FRACTION      ENERGY      TEMP
                                          (SEE NOTE)     KJ/KG-MOL      K  
 FUEL        RP-1                         1.0000000    -24717.700    298.150
 OXIDANT     O2(L)                        1.0000000    -12979.000     90.170

 O/F=    2.10000  %FUEL= 32.258065  R,EQ.RATIO= 1.621746  PHI,EQ.RATIO= 1.621746

 THERMODYNAMIC PROPERTIES

 P, BAR            18.000   19.000   20.000   21.000   22.000   23.000   24.000
 T, K             3309.15  3314.57  3319.69  3324.55  3329.16  3333.54  3337.73
 RHO, KG/CU M    1.3819 0 1.4570 0 1.5321 0 1.6070 0 1.6819 0 1.7567 0 1.8315 0
 H, KJ/KG         -845.27  -845.27  -845.27  -845.27  -845.27  -845.27  -845.27
 U, KJ/KG        -2147.79 -2149.29 -2150.70 -2152.05 -2153.32 -2154.53 -2155.68
 G, KJ/KG        -41492.5 -41488.6 -41484.4 -41480.1 -41475.6 -41470.9 -41466.1
 S, KJ/(KG)(K)    12.2833  12.2620  12.2418  12.2227  12.2044  12.1869  12.1702

 M, (1/n)          21.124   21.134   21.144   21.153   21.162   21.170   21.178
 (dLV/dLP)t      -1.02059 -1.02031 -1.02005 -1.01981 -1.01958 -1.01936 -1.01915
 (dLV/dLT)p        1.3814   1.3758   1.3705   1.3655   1.3608   1.3563   1.3521
 Cp, KJ/(KG)(K)    4.9412   4.8952   4.8519   4.8112   4.7727   4.7363   4.7017
 GAMMAs            1.1513   1.1518   1.1523   1.1528   1.1532   1.1537   1.1541
 SON VEL,M/SEC     1224.6   1225.6   1226.5   1227.4   1228.2   1229.0   1229.8

 MASS FRACTIONS

 *CO              0.52953  0.52949  0.52946  0.52942  0.52939  0.52935  0.52932
 *CO2             0.18373  0.18379  0.18385  0.18390  0.18395  0.18400  0.18405
 COOH             0.00001  0.00001  0.00001  0.00001  0.00001  0.00001  0.00001
 *H               0.00169  0.00167  0.00164  0.00162  0.00160  0.00159  0.00157
 HCO              0.00002  0.00002  0.00002  0.00002  0.00002  0.00002  0.00002
 HO2              0.00001  0.00001  0.00001  0.00001  0.00001  0.00001  0.00001
 *H2              0.01534  0.01534  0.01533  0.01533  0.01533  0.01533  0.01532
 H2O              0.24148  0.24181  0.24212  0.24242  0.24270  0.24297  0.24323
 *O               0.00252  0.00247  0.00241  0.00236  0.00232  0.00227  0.00223
 *OH              0.02221  0.02201  0.02183  0.02165  0.02148  0.02131  0.02115
 *O2              0.00345  0.00338  0.00331  0.00325  0.00318  0.00313  0.00307

  * THERMODYNAMIC PROPERTIES FITTED TO 20000.K

 NOTE. WEIGHT FRACTION OF FUEL IN TOTAL FUELS AND OF OXIDANT IN TOTAL OXIDANTS

         THERMODYNAMIC EQUILIBRIUM COMBUSTION PROPERTIES AT ASSIGNED

                                   PRESSURES

 CASE = _______________

             REACTANT                    WT FRACTION      ENERGY      TEMP
                                          (SEE NOTE)     KJ/KG-MOL      K  
 FUEL        RP-1                         1.0000000    -24717.700    298.150
 OXIDANT     O2(L)                        1.0000000    -12979.000     90.170

 O/F=    2.11000  %FUEL= 32.154341  R,EQ.RATIO= 1.614060  PHI,EQ.RATIO= 1.614060

 THERMODYNAMIC PROPERTIES

 P, BAR            10.000   11.000   12.000   13.000   14.000   15.000   16.000   17.000
 T, K             3254.64  3264.69  3273.82  3282.18  3289.88  3297.02  3303.67  3309.89
 RHO, KG/CU M    7.7806-1 8.5400-1 9.2979-1 1.0055 0 1.0810 0 1.1565 0 1.2318 0 1.3071 0
 H, KJ/KG         -843.86  -843.86  -843.86  -843.86  -843.86  -843.86  -843.86  -843.86
 U, KJ/KG        -2129.11 -2131.92 -2134.47 -2136.80 -2138.94 -2140.92 -2142.76 -2144.48
 G, KJ/KG        -41537.1 -41539.9 -41541.4 -41541.8 -41541.3 -41540.1 -41538.3 -41536.1
 S, KJ/(KG)(K)    12.5031  12.4655  12.4312  12.3997  12.3705  12.3433  12.3180  12.2941

 M, (1/n)          21.055   21.074   21.091   21.107   21.121   21.135   21.147   21.159
 (dLV/dLP)t      -1.02427 -1.02376 -1.02330 -1.02288 -1.02249 -1.02213 -1.02179 -1.02148
 (dLV/dLT)p        1.4563   1.4456   1.4359   1.4271   1.4190   1.4115   1.4045   1.3981
 Cp, KJ/(KG)(K)    5.5478   5.4563   5.3742   5.2997   5.2317   5.1692   5.1114   5.0578
 GAMMAs            1.1451   1.1459   1.1467   1.1474   1.1481   1.1488   1.1494   1.1499
 SON VEL,M/SEC     1213.1   1214.9   1216.5   1218.0   1219.4   1220.7   1221.8   1223.0

 MASS FRACTIONS

 *CO              0.52658  0.52651  0.52645  0.52640  0.52634  0.52629  0.52624  0.52620
 *CO2             0.18512  0.18522  0.18531  0.18540  0.18548  0.18556  0.18563  0.18571
 COOH             0.00001  0.00001  0.00001  0.00001  0.00001  0.00001  0.00001  0.00001
 *H               0.00196  0.00191  0.00188  0.00184  0.00181  0.00178  0.00175  0.00172
 HCO              0.00001  0.00001  0.00002  0.00002  0.00002  0.00002  0.00002  0.00002
 HO2              0.00001  0.00001  0.00001  0.00001  0.00001  0.00001  0.00001  0.00001
 *H2              0.01512  0.01511  0.01511  0.01510  0.01510  0.01509  0.01509  0.01509
 H2O              0.23831  0.23890  0.23945  0.23995  0.24042  0.24085  0.24125  0.24163
 *O               0.00335  0.00323  0.00313  0.00303  0.00295  0.00287  0.00279  0.00273
 *OH              0.02494  0.02462  0.02432  0.02404  0.02379  0.02354  0.02331  0.02309
 *O2              0.00460  0.00445  0.00432  0.00419  0.00408  0.00398  0.00388  0.00379

  * THERMODYNAMIC PROPERTIES FITTED TO 20000.K

 NOTE. WEIGHT FRACTION OF FUEL IN TOTAL FUELS AND OF OXIDANT IN TOTAL OXIDANTS

         THERMODYNAMIC EQUILIBRIUM COMBUSTION PROPERTIES AT ASSIGNED

                                   PRESSURES

 CASE = _______________

             REACTANT                    WT FRACTION      ENERGY      TEMP
                                          (SEE NOTE)     KJ/KG-MOL      K  
 FUEL        RP-1                         1.0000000    -24717.700    298.150
 OXIDANT     O2(L)                        1.0000000    -12979.000     90.170

 O/F=    2.11000  %FUEL= 32.154341  R,EQ.RATIO= 1.614060  PHI,EQ.RATIO= 1.614060

 THERMODYNAMIC PROPERTIES

 P, BAR            18.000   19.000   20.000   21.000   22.000   23.000   24.000
 T, K             3315.73  3321.23  3326.43  3331.35  3336.03  3340.48  3344.73
 RHO, KG/CU M    1.3822 0 1.4573 0 1.5323 0 1.6073 0 1.6822 0 1.7570 0 1.8318 0
 H, KJ/KG         -843.86  -843.86  -843.86  -843.86  -843.86  -843.86  -843.86
 U, KJ/KG        -2146.10 -2147.61 -2149.05 -2150.40 -2151.69 -2152.91 -2154.08
 G, KJ/KG        -41533.4 -41530.4 -41527.1 -41523.6 -41519.8 -41515.9 -41511.8
 S, KJ/(KG)(K)    12.2717  12.2504  12.2303  12.2112  12.1929  12.1755  12.1588

 M, (1/n)          21.170   21.181   21.190   21.200   21.209   21.217   21.225
 (dLV/dLP)t      -1.02118 -1.02091 -1.02064 -1.02039 -1.02016 -1.01993 -1.01972
 (dLV/dLT)p        1.3920   1.3863   1.3810   1.3759   1.3711   1.3665   1.3622
 Cp, KJ/(KG)(K)    5.0078   4.9610   4.9171   4.8757   4.8366   4.7996   4.7645
 GAMMAs            1.1505   1.1510   1.1515   1.1519   1.1524   1.1528   1.1532
 SON VEL,M/SEC     1224.0   1225.0   1225.9   1226.8   1227.6   1228.4   1229.2

 MASS FRACTIONS

 *CO              0.52615  0.52611  0.52607  0.52603  0.52599  0.52595  0.52592
 *CO2             0.18577  0.18584  0.18590  0.18596  0.18602  0.18608  0.18613
 COOH             0.00001  0.00001  0.00001  0.00001  0.00001  0.00001  0.00001
 *H               0.00170  0.00168  0.00166  0.00164  0.00162  0.00160  0.00158
 HCO              0.00002  0.00002  0.00002  0.00002  0.00002  0.00002  0.00002
 HO2              0.00001  0.00001  0.00001  0.00001  0.00001  0.00001  0.00001
 *H2              0.01508  0.01508  0.01508  0.01507  0.01507  0.01507  0.01507
 H2O              0.24198  0.24232  0.24264  0.24294  0.24323  0.24350  0.24376
 *O               0.00266  0.00260  0.00255  0.00250  0.00245  0.00240  0.00236
 *OH              0.02289  0.02269  0.02250  0.02232  0.02215  0.02198  0.02182
 *O2              0.00371  0.00363  0.00356  0.00349  0.00343  0.00337  0.00331

  * THERMODYNAMIC PROPERTIES FITTED TO 20000.K

 NOTE. WEIGHT FRACTION OF FUEL IN TOTAL FUELS AND OF OXIDANT IN TOTAL OXIDANTS

         THERMODYNAMIC EQUILIBRIUM COMBUSTION PROPERTIES AT ASSIGNED

                                   PRESSURES

 CASE = _______________

             REACTANT                    WT FRACTION      ENERGY      TEMP
                                          (SEE NOTE)     KJ/KG-MOL      K  
 FUEL        RP-1                         1.0000000    -24717.700    298.150
 OXIDANT     O2(L)                        1.0000000    -12979.000     90.170

 O/F=    2.12000  %FUEL= 32.051282  R,EQ.RATIO= 1.606446  PHI,EQ.RATIO= 1.606446

 THERMODYNAMIC PROPERTIES

 P, BAR            10.000   11.000   12.000   13.000   14.000   15.000   16.000   17.000
 T, K             3260.27  3270.44  3279.68  3288.14  3295.94  3303.18  3309.91  3316.21
 RHO, KG/CU M    7.7835-1 8.5430-1 9.3011-1 1.0058 0 1.0813 0 1.1568 0 1.2321 0 1.3074 0
 H, KJ/KG         -842.45  -842.45  -842.45  -842.45  -842.45  -842.45  -842.45  -842.45
 U, KJ/KG        -2127.22 -2130.06 -2132.63 -2134.98 -2137.14 -2139.14 -2141.00 -2142.74
 G, KJ/KG        -41566.7 -41570.9 -41573.7 -41575.3 -41576.0 -41575.8 -41575.1 -41573.8
 S, KJ/(KG)(K)    12.4911  12.4535  12.4193  12.3878  12.3587  12.3316  12.3063  12.2825

 M, (1/n)          21.099   21.118   21.136   21.152   21.167   21.180   21.193   21.205
 (dLV/dLP)t      -1.02491 -1.02440 -1.02393 -1.02350 -1.02311 -1.02274 -1.02240 -1.02208
 (dLV/dLT)p        1.4680   1.4571   1.4473   1.4383   1.4301   1.4225   1.4155   1.4089
 Cp, KJ/(KG)(K)    5.6224   5.5297   5.4464   5.3709   5.3019   5.2385   5.1800   5.1255
 GAMMAs            1.1443   1.1452   1.1460   1.1467   1.1473   1.1480   1.1486   1.1491
 SON VEL,M/SEC     1212.5   1214.3   1215.9   1217.4   1218.8   1220.1   1221.3   1222.4

 MASS FRACTIONS

 *CO              0.52327  0.52320  0.52313  0.52307  0.52301  0.52295  0.52289  0.52284
 *CO2             0.18707  0.18718  0.18729  0.18738  0.18748  0.18757  0.18765  0.18773
 COOH             0.00001  0.00001  0.00001  0.00001  0.00001  0.00001  0.00001  0.00001
 *H               0.00197  0.00193  0.00189  0.00185  0.00182  0.00179  0.00176  0.00174
 HCO              0.00001  0.00001  0.00002  0.00002  0.00002  0.00002  0.00002  0.00002
 HO2              0.00001  0.00001  0.00001  0.00001  0.00001  0.00001  0.00001  0.00001
 *H2              0.01487  0.01487  0.01486  0.01486  0.01485  0.01485  0.01484  0.01484
 H2O              0.23873  0.23934  0.23989  0.24040  0.24087  0.24131  0.24171  0.24210
 *O               0.00351  0.00339  0.00329  0.00319  0.00310  0.00302  0.00294  0.00287
 *OH              0.02562  0.02530  0.02500  0.02473  0.02447  0.02422  0.02399  0.02377
 *O2              0.00492  0.00476  0.00462  0.00449  0.00437  0.00426  0.00416  0.00407

  * THERMODYNAMIC PROPERTIES FITTED TO 20000.K

 NOTE. WEIGHT FRACTION OF FUEL IN TOTAL FUELS AND OF OXIDANT IN TOTAL OXIDANTS

         THERMODYNAMIC EQUILIBRIUM COMBUSTION PROPERTIES AT ASSIGNED

                                   PRESSURES

 CASE = _______________

             REACTANT                    WT FRACTION      ENERGY      TEMP
                                          (SEE NOTE)     KJ/KG-MOL      K  
 FUEL        RP-1                         1.0000000    -24717.700    298.150
 OXIDANT     O2(L)                        1.0000000    -12979.000     90.170

 O/F=    2.12000  %FUEL= 32.051282  R,EQ.RATIO= 1.606446  PHI,EQ.RATIO= 1.606446

 THERMODYNAMIC PROPERTIES

 P, BAR            18.000   19.000   20.000   21.000   22.000   23.000   24.000
 T, K             3322.13  3327.71  3332.98  3337.97  3342.71  3347.23  3351.54
 RHO, KG/CU M    1.3826 0 1.4577 0 1.5327 0 1.6076 0 1.6825 0 1.7573 0 1.8321 0
 H, KJ/KG         -842.45  -842.45  -842.45  -842.45  -842.45  -842.45  -842.45
 U, KJ/KG        -2144.37 -2145.90 -2147.35 -2148.72 -2150.02 -2151.26 -2152.43
 G, KJ/KG        -41572.0 -41569.9 -41567.4 -41564.7 -41561.7 -41558.5 -41555.2
 S, KJ/(KG)(K)    12.2601  12.2389  12.2188  12.1997  12.1815  12.1641  12.1475

 M, (1/n)          21.216   21.227   21.237   21.246   21.256   21.264   21.272
 (dLV/dLP)t      -1.02179 -1.02150 -1.02124 -1.02099 -1.02075 -1.02052 -1.02030
 (dLV/dLT)p        1.4027   1.3970   1.3915   1.3864   1.3815   1.3769   1.3724
 Cp, KJ/(KG)(K)    5.0748   5.0273   4.9827   4.9407   4.9010   4.8634   4.8277
 GAMMAs            1.1496   1.1501   1.1506   1.1511   1.1515   1.1519   1.1523
 SON VEL,M/SEC     1223.4   1224.4   1225.3   1226.2   1227.1   1227.9   1228.6

 MASS FRACTIONS

 *CO              0.52279  0.52274  0.52270  0.52265  0.52261  0.52257  0.52253
 *CO2             0.18781  0.18788  0.18795  0.18802  0.18809  0.18815  0.18821
 COOH             0.00001  0.00001  0.00001  0.00001  0.00001  0.00001  0.00001
 *H               0.00171  0.00169  0.00167  0.00165  0.00163  0.00161  0.00159
 HCO              0.00002  0.00002  0.00002  0.00002  0.00002  0.00002  0.00002
 HO2              0.00001  0.00002  0.00002  0.00002  0.00002  0.00002  0.00002
 *H2              0.01483  0.01483  0.01483  0.01482  0.01482  0.01482  0.01481
 H2O              0.24246  0.24280  0.24312  0.24343  0.24372  0.24400  0.24426
 *O               0.00280  0.00274  0.00269  0.00263  0.00258  0.00253  0.00249
 *OH              0.02356  0.02336  0.02317  0.02299  0.02282  0.02265  0.02249
 *O2              0.00398  0.00390  0.00382  0.00375  0.00368  0.00362  0.00356

  * THERMODYNAMIC PROPERTIES FITTED TO 20000.K

 NOTE. WEIGHT FRACTION OF FUEL IN TOTAL FUELS AND OF OXIDANT IN TOTAL OXIDANTS

         THERMODYNAMIC EQUILIBRIUM COMBUSTION PROPERTIES AT ASSIGNED

                                   PRESSURES

 CASE = _______________

             REACTANT                    WT FRACTION      ENERGY      TEMP
                                          (SEE NOTE)     KJ/KG-MOL      K  
 FUEL        RP-1                         1.0000000    -24717.700    298.150
 OXIDANT     O2(L)                        1.0000000    -12979.000     90.170

 O/F=    2.13000  %FUEL= 31.948882  R,EQ.RATIO= 1.598904  PHI,EQ.RATIO= 1.598904

 THERMODYNAMIC PROPERTIES

 P, BAR            10.000   11.000   12.000   13.000   14.000   15.000   16.000   17.000
 T, K             3265.74  3276.03  3285.37  3293.94  3301.83  3309.15  3315.98  3322.36
 RHO, KG/CU M    7.7867-1 8.5463-1 9.3045-1 1.0061 0 1.0817 0 1.1572 0 1.2325 0 1.3078 0
 H, KJ/KG         -841.06  -841.06  -841.06  -841.06  -841.06  -841.06  -841.06  -841.06
 U, KJ/KG        -2125.30 -2128.16 -2130.75 -2133.12 -2135.30 -2137.32 -2139.20 -2140.96
 G, KJ/KG        -41594.2 -41599.8 -41603.9 -41606.7 -41608.4 -41609.3 -41609.6 -41609.2
 S, KJ/(KG)(K)    12.4790  12.4415  12.4074  12.3759  12.3469  12.3199  12.2946  12.2709

 M, (1/n)          21.143   21.163   21.180   21.197   21.212   21.226   21.239   21.251
 (dLV/dLP)t      -1.02556 -1.02504 -1.02457 -1.02413 -1.02373 -1.02336 -1.02302 -1.02270
 (dLV/dLT)p        1.4797   1.4687   1.4588   1.4497   1.4413   1.4336   1.4265   1.4198
 Cp, KJ/(KG)(K)    5.6972   5.6033   5.5189   5.4423   5.3724   5.3082   5.2487   5.1936
 GAMMAs            1.1436   1.1444   1.1452   1.1459   1.1466   1.1472   1.1478   1.1483
 SON VEL,M/SEC     1211.9   1213.7   1215.3   1216.8   1218.2   1219.5   1220.6   1221.8

 MASS FRACTIONS

 *CO              0.51998  0.51990  0.51983  0.51976  0.51969  0.51962  0.51956  0.51951
 *CO2             0.18901  0.18913  0.18925  0.18936  0.18947  0.18956  0.18966  0.18975
 COOH             0.00001  0.00001  0.00001  0.00001  0.00001  0.00001  0.00001  0.00001
 *H               0.00198  0.00194  0.00190  0.00186  0.00183  0.00180  0.00177  0.00175
 HCO              0.00001  0.00001  0.00002  0.00002  0.00002  0.00002  0.00002  0.00002
 HO2              0.00001  0.00001  0.00001  0.00002  0.00002  0.00002  0.00002  0.00002
 *H2              0.01463  0.01463  0.01462  0.01461  0.01461  0.01460  0.01460  0.01459
 H2O              0.23912  0.23974  0.24030  0.24081  0.24129  0.24173  0.24215  0.24253
 *O               0.00368  0.00356  0.00345  0.00335  0.00325  0.00317  0.00309  0.00302
 *OH              0.02631  0.02599  0.02569  0.02541  0.02515  0.02490  0.02467  0.02445
 *O2              0.00524  0.00508  0.00493  0.00480  0.00467  0.00456  0.00445  0.00436

  * THERMODYNAMIC PROPERTIES FITTED TO 20000.K

 NOTE. WEIGHT FRACTION OF FUEL IN TOTAL FUELS AND OF OXIDANT IN TOTAL OXIDANTS

         THERMODYNAMIC EQUILIBRIUM COMBUSTION PROPERTIES AT ASSIGNED

                                   PRESSURES

 CASE = _______________

             REACTANT                    WT FRACTION      ENERGY      TEMP
                                          (SEE NOTE)     KJ/KG-MOL      K  
 FUEL        RP-1                         1.0000000    -24717.700    298.150
 OXIDANT     O2(L)                        1.0000000    -12979.000     90.170

 O/F=    2.13000  %FUEL= 31.948882  R,EQ.RATIO= 1.598904  PHI,EQ.RATIO= 1.598904

 THERMODYNAMIC PROPERTIES

 P, BAR            18.000   19.000   20.000   21.000   22.000   23.000   24.000
 T, K             3328.35  3334.00  3339.34  3344.40  3349.21  3353.79  3358.16
 RHO, KG/CU M    1.3830 0 1.4581 0 1.5331 0 1.6080 0 1.6829 0 1.7577 0 1.8325 0
 H, KJ/KG         -841.06  -841.06  -841.06  -841.06  -841.06  -841.06  -841.06
 U, KJ/KG        -2142.60 -2144.15 -2145.61 -2147.00 -2148.31 -2149.56 -2150.75
 G, KJ/KG        -41608.4 -41607.1 -41605.5 -41603.5 -41601.3 -41598.9 -41596.2
 S, KJ/(KG)(K)    12.2485  12.2274  12.2073  12.1883  12.1701  12.1527  12.1361

 M, (1/n)          21.262   21.273   21.283   21.293   21.302   21.311   21.319
 (dLV/dLP)t      -1.02239 -1.02211 -1.02184 -1.02158 -1.02134 -1.02111 -1.02089
 (dLV/dLT)p        1.4136   1.4077   1.4022   1.3969   1.3920   1.3873   1.3828
 Cp, KJ/(KG)(K)    5.1421   5.0939   5.0486   5.0060   4.9657   4.9275   4.8912
 GAMMAs            1.1489   1.1493   1.1498   1.1503   1.1507   1.1511   1.1515
 SON VEL,M/SEC     1222.8   1223.8   1224.7   1225.6   1226.5   1227.3   1228.1

 MASS FRACTIONS

 *CO              0.51945  0.51940  0.51935  0.51930  0.51925  0.51921  0.51916
 *CO2             0.18983  0.18991  0.18999  0.19007  0.19014  0.19021  0.19028
 COOH             0.00001  0.00001  0.00001  0.00001  0.00001  0.00001  0.00001
 *H               0.00172  0.00170  0.00168  0.00166  0.00164  0.00162  0.00160
 HCO              0.00002  0.00002  0.00002  0.00002  0.00002  0.00002  0.00002
 HO2              0.00002  0.00002  0.00002  0.00002  0.00002  0.00002  0.00002
 *H2              0.01459  0.01459  0.01458  0.01458  0.01457  0.01457  0.01457
 H2O              0.24290  0.24324  0.24357  0.24388  0.24418  0.24446  0.24473
 *O               0.00295  0.00289  0.00283  0.00277  0.00272  0.00267  0.00262
 *OH              0.02424  0.02404  0.02385  0.02367  0.02349  0.02332  0.02316
 *O2              0.00426  0.00418  0.00410  0.00402  0.00395  0.00388  0.00382

  * THERMODYNAMIC PROPERTIES FITTED TO 20000.K

 NOTE. WEIGHT FRACTION OF FUEL IN TOTAL FUELS AND OF OXIDANT IN TOTAL OXIDANTS

         THERMODYNAMIC EQUILIBRIUM COMBUSTION PROPERTIES AT ASSIGNED

                                   PRESSURES

 CASE = _______________

             REACTANT                    WT FRACTION      ENERGY      TEMP
                                          (SEE NOTE)     KJ/KG-MOL      K  
 FUEL        RP-1                         1.0000000    -24717.700    298.150
 OXIDANT     O2(L)                        1.0000000    -12979.000     90.170

 O/F=    2.14000  %FUEL= 31.847134  R,EQ.RATIO= 1.591433  PHI,EQ.RATIO= 1.591433

 THERMODYNAMIC PROPERTIES

 P, BAR            10.000   11.000   12.000   13.000   14.000   15.000   16.000   17.000
 T, K             3271.05  3281.45  3290.90  3299.56  3307.55  3314.96  3321.87  3328.33
 RHO, KG/CU M    7.7901-1 8.5499-1 9.3083-1 1.0065 0 1.0821 0 1.1576 0 1.2330 0 1.3082 0
 H, KJ/KG         -839.67  -839.67  -839.67  -839.67  -839.67  -839.67  -839.67  -839.67
 U, KJ/KG        -2123.35 -2126.23 -2128.84 -2131.23 -2133.44 -2135.47 -2137.37 -2139.14
 G, KJ/KG        -41619.7 -41626.6 -41631.9 -41635.9 -41638.7 -41640.7 -41641.9 -41642.5
 S, KJ/(KG)(K)    12.4670  12.4296  12.3955  12.3641  12.3351  12.3081  12.2829  12.2592

 M, (1/n)          21.187   21.207   21.225   21.241   21.256   21.270   21.284   21.296
 (dLV/dLP)t      -1.02621 -1.02568 -1.02521 -1.02477 -1.02437 -1.02399 -1.02364 -1.02332
 (dLV/dLT)p        1.4915   1.4804   1.4703   1.4611   1.4526   1.4448   1.4376   1.4308
 Cp, KJ/(KG)(K)    5.7719   5.6769   5.5914   5.5139   5.4431   5.3779   5.3177   5.2618
 GAMMAs            1.1429   1.1437   1.1445   1.1452   1.1458   1.1464   1.1470   1.1476
 SON VEL,M/SEC     1211.3   1213.0   1214.7   1216.2   1217.6   1218.8   1220.0   1221.2

 MASS FRACTIONS

 *CO              0.51672  0.51663  0.51654  0.51647  0.51639  0.51632  0.51625  0.51619
 *CO2             0.19094  0.19107  0.19120  0.19133  0.19144  0.19155  0.19165  0.19175
 COOH             0.00001  0.00001  0.00001  0.00001  0.00001  0.00001  0.00001  0.00001
 *H               0.00199  0.00195  0.00191  0.00187  0.00184  0.00181  0.00178  0.00176
 HCO              0.00001  0.00001  0.00001  0.00002  0.00002  0.00002  0.00002  0.00002
[...]
 COOH             0.00001  0.00001  0.00001  0.00001  0.00001  0.00001  0.00001  0.00001
 *H               0.00202  0.00198  0.00194  0.00190  0.00187  0.00184  0.00181  0.00179
 HCO              0.00001  0.00001  0.00001  0.00002  0.00002  0.00002  0.00002  0.00002
 HO2              0.00002  0.00002  0.00002  0.00002  0.00002  0.00002  0.00002  0.00002
 *H2              0.01351  0.01350  0.01349  0.01348  0.01347  0.01346  0.01346  0.01345
 H2O              0.24067  0.24131  0.24190  0.24245  0.24295  0.24342  0.24386  0.24427
 *O               0.00458  0.00444  0.00431  0.00419  0.00409  0.00399  0.00390  0.00381
 *OH              0.02969  0.02937  0.02907  0.02880  0.02853  0.02829  0.02805  0.02783
 *O2              0.00710  0.00690  0.00672  0.00655  0.00640  0.00626  0.00612  0.00600

  * THERMODYNAMIC PROPERTIES FITTED TO 20000.K

 NOTE. WEIGHT FRACTION OF FUEL IN TOTAL FUELS AND OF OXIDANT IN TOTAL OXIDANTS

         THERMODYNAMIC EQUILIBRIUM COMBUSTION PROPERTIES AT ASSIGNED

                                   PRESSURES

 CASE = _______________

             REACTANT                    WT FRACTION      ENERGY      TEMP
                                          (SEE NOTE)     KJ/KG-MOL      K  
 FUEL        RP-1                         1.0000000    -24717.700    298.150
 OXIDANT     O2(L)                        1.0000000    -12979.000     90.170

 O/F=    2.18000  %FUEL= 31.446541  R,EQ.RATIO= 1.562232  PHI,EQ.RATIO= 1.562232

 THERMODYNAMIC PROPERTIES

 P, BAR            18.000   19.000   20.000   21.000   22.000   23.000   24.000
 T, K             3356.90  3362.90  3368.57  3373.96  3379.07  3383.95  3388.61
 RHO, KG/CU M    1.3856 0 1.4608 0 1.5359 0 1.6109 0 1.6858 0 1.7607 0 1.8354 0
 H, KJ/KG         -834.21  -834.21  -834.21  -834.21  -834.21  -834.21  -834.21
 U, KJ/KG        -2133.26 -2134.88 -2136.41 -2137.86 -2139.23 -2140.54 -2141.79
 G, KJ/KG        -41758.0 -41760.8 -41763.1 -41764.9 -41766.2 -41767.2 -41767.9
 S, KJ/(KG)(K)    12.1910  12.1700  12.1502  12.1314  12.1134  12.0962  12.0798

 M, (1/n)          21.486   21.497   21.508   21.519   21.529   21.538   21.547
 (dLV/dLP)t      -1.02550 -1.02520 -1.02491 -1.02464 -1.02438 -1.02414 -1.02390
 (dLV/dLT)p        1.4687   1.4625   1.4566   1.4510   1.4457   1.4406   1.4358
 Cp, KJ/(KG)(K)    5.4810   5.4296   5.3813   5.3357   5.2927   5.2518   5.2130
 GAMMAs            1.1452   1.1457   1.1461   1.1465   1.1469   1.1473   1.1477
 SON VEL,M/SEC     1219.7   1220.7   1221.7   1222.6   1223.4   1224.3   1225.0

 MASS FRACTIONS

 *CO              0.50304  0.50296  0.50289  0.50281  0.50274  0.50267  0.50261
 *CO2             0.19979  0.19992  0.20004  0.20015  0.20026  0.20037  0.20047
 COOH             0.00001  0.00001  0.00001  0.00001  0.00001  0.00001  0.00001
 *H               0.00177  0.00174  0.00172  0.00170  0.00168  0.00166  0.00165
 HCO              0.00002  0.00002  0.00002  0.00002  0.00002  0.00002  0.00002
 HO2              0.00002  0.00002  0.00002  0.00002  0.00002  0.00002  0.00002
 *H2              0.01344  0.01344  0.01343  0.01342  0.01342  0.01341  0.01341
 H2O              0.24466  0.24503  0.24537  0.24570  0.24602  0.24632  0.24661
 *O               0.00373  0.00366  0.00359  0.00352  0.00346  0.00340  0.00335
 *OH              0.02762  0.02742  0.02722  0.02704  0.02686  0.02669  0.02653
 *O2              0.00589  0.00578  0.00568  0.00558  0.00549  0.00541  0.00533

  * THERMODYNAMIC PROPERTIES FITTED TO 20000.K

 NOTE. WEIGHT FRACTION OF FUEL IN TOTAL FUELS AND OF OXIDANT IN TOTAL OXIDANTS

         THERMODYNAMIC EQUILIBRIUM COMBUSTION PROPERTIES AT ASSIGNED

                                   PRESSURES

 CASE = _______________

             REACTANT                    WT FRACTION      ENERGY      TEMP
                                          (SEE NOTE)     KJ/KG-MOL      K  
 FUEL        RP-1                         1.0000000    -24717.700    298.150
 OXIDANT     O2(L)                        1.0000000    -12979.000     90.170

 O/F=    2.19000  %FUEL= 31.347962  R,EQ.RATIO= 1.555099  PHI,EQ.RATIO= 1.555099

 THERMODYNAMIC PROPERTIES

 P, BAR            10.000   11.000   12.000   13.000   14.000   15.000   16.000   17.000
 T, K             3295.31  3306.24  3316.19  3325.31  3333.74  3341.56  3348.86  3355.69
 RHO, KG/CU M    7.8107-1 8.5718-1 9.3313-1 1.0089 0 1.0846 0 1.1602 0 1.2357 0 1.3110 0
 H, KJ/KG         -832.87  -832.87  -832.87  -832.87  -832.87  -832.87  -832.87  -832.87
 U, KJ/KG        -2113.16 -2116.14 -2118.85 -2121.34 -2123.62 -2125.74 -2127.72 -2129.56
 G, KJ/KG        -41718.5 -41731.7 -41742.8 -41752.2 -41760.2 -41767.0 -41772.8 -41777.7
 S, KJ/(KG)(K)    12.4072  12.3702  12.3364  12.3054  12.2767  12.2500  12.2250  12.2016

 M, (1/n)          21.401   21.422   21.441   21.458   21.475   21.490   21.504   21.517
 (dLV/dLP)t      -1.02949 -1.02895 -1.02845 -1.02799 -1.02756 -1.02717 -1.02680 -1.02646
 (dLV/dLT)p        1.5509   1.5392   1.5285   1.5188   1.5098   1.5016   1.4939   1.4867
 Cp, KJ/(KG)(K)    6.1442   6.0439   5.9536   5.8716   5.7966   5.7276   5.6637   5.6043
 GAMMAs            1.1397   1.1405   1.1412   1.1419   1.1425   1.1430   1.1436   1.1441
 SON VEL,M/SEC     1208.0   1209.8   1211.4   1213.0   1214.3   1215.6   1216.9   1218.0

 MASS FRACTIONS

 *CO              0.50070  0.50057  0.50044  0.50032  0.50021  0.50011  0.50001  0.49991
 *CO2             0.20038  0.20059  0.20079  0.20097  0.20114  0.20131  0.20146  0.20161
 COOH             0.00001  0.00001  0.00001  0.00001  0.00001  0.00001  0.00001  0.00001
 *H               0.00202  0.00198  0.00194  0.00191  0.00188  0.00185  0.00182  0.00180
 HCO              0.00001  0.00001  0.00001  0.00002  0.00002  0.00002  0.00002  0.00002
 HO2              0.00002  0.00002  0.00002  0.00002  0.00002  0.00002  0.00002  0.00002
 *H2              0.01330  0.01329  0.01328  0.01327  0.01326  0.01325  0.01324  0.01323
 H2O              0.24090  0.24155  0.24215  0.24269  0.24320  0.24368  0.24412  0.24453
 *O               0.00477  0.00462  0.00449  0.00437  0.00426  0.00416  0.00407  0.00398
 *OH              0.03036  0.03004  0.02974  0.02947  0.02920  0.02896  0.02872  0.02850
 *O2              0.00751  0.00731  0.00712  0.00694  0.00678  0.00664  0.00650  0.00637

  * THERMODYNAMIC PROPERTIES FITTED TO 20000.K

 NOTE. WEIGHT FRACTION OF FUEL IN TOTAL FUELS AND OF OXIDANT IN TOTAL OXIDANTS

         THERMODYNAMIC EQUILIBRIUM COMBUSTION PROPERTIES AT ASSIGNED

                                   PRESSURES

 CASE = _______________

             REACTANT                    WT FRACTION      ENERGY      TEMP
                                          (SEE NOTE)     KJ/KG-MOL      K  
 FUEL        RP-1                         1.0000000    -24717.700    298.150
 OXIDANT     O2(L)                        1.0000000    -12979.000     90.170

 O/F=    2.19000  %FUEL= 31.347962  R,EQ.RATIO= 1.555099  PHI,EQ.RATIO= 1.555099

 THERMODYNAMIC PROPERTIES

 P, BAR            18.000   19.000   20.000   21.000   22.000   23.000   24.000
 T, K             3362.12  3368.18  3373.92  3379.37  3384.54  3389.48  3394.19
 RHO, KG/CU M    1.3863 0 1.4615 0 1.5366 0 1.6116 0 1.6865 0 1.7614 0 1.8362 0
 H, KJ/KG         -832.87  -832.87  -832.87  -832.87  -832.87  -832.87  -832.87
 U, KJ/KG        -2131.29 -2132.93 -2134.47 -2135.93 -2137.32 -2138.64 -2139.90
 G, KJ/KG        -41781.9 -41785.4 -41788.4 -41790.9 -41793.0 -41794.6 -41795.9
 S, KJ/(KG)(K)    12.1795  12.1587  12.1389  12.1200  12.1021  12.0850  12.0686

 M, (1/n)          21.529   21.541   21.552   21.563   21.573   21.582   21.592
 (dLV/dLP)t      -1.02613 -1.02583 -1.02554 -1.02526 -1.02500 -1.02475 -1.02452
 (dLV/dLT)p        1.4799   1.4736   1.4676   1.4619   1.4566   1.4514   1.4466
 Cp, KJ/(KG)(K)    5.5489   5.4969   5.4480   5.4020   5.3584   5.3171   5.2778
 GAMMAs            1.1446   1.1450   1.1454   1.1459   1.1463   1.1466   1.1470
 SON VEL,M/SEC     1219.1   1220.1   1221.0   1221.9   1222.8   1223.6   1224.4

 MASS FRACTIONS

 *CO              0.49982  0.49974  0.49965  0.49958  0.49950  0.49943  0.49936
 *CO2             0.20175  0.20188  0.20201  0.20213  0.20225  0.20236  0.20247
 COOH             0.00001  0.00001  0.00001  0.00001  0.00001  0.00001  0.00001
 *H               0.00177  0.00175  0.00173  0.00171  0.00169  0.00167  0.00165
 HCO              0.00002  0.00002  0.00002  0.00002  0.00002  0.00002  0.00002
 HO2              0.00002  0.00002  0.00002  0.00002  0.00002  0.00002  0.00002
 *H2              0.01323  0.01322  0.01321  0.01321  0.01320  0.01320  0.01319
 H2O              0.24493  0.24530  0.24565  0.24598  0.24630  0.24660  0.24690
 *O               0.00390  0.00382  0.00375  0.00368  0.00362  0.00356  0.00350
 *OH              0.02829  0.02809  0.02790  0.02771  0.02753  0.02736  0.02720
 *O2              0.00626  0.00614  0.00604  0.00594  0.00584  0.00575  0.00567

  * THERMODYNAMIC PROPERTIES FITTED TO 20000.K

 NOTE. WEIGHT FRACTION OF FUEL IN TOTAL FUELS AND OF OXIDANT IN TOTAL OXIDANTS

         THERMODYNAMIC EQUILIBRIUM COMBUSTION PROPERTIES AT ASSIGNED

                                   PRESSURES

 CASE = _______________

             REACTANT                    WT FRACTION      ENERGY      TEMP
                                          (SEE NOTE)     KJ/KG-MOL      K  
 FUEL        RP-1                         1.0000000    -24717.700    298.150
 OXIDANT     O2(L)                        1.0000000    -12979.000     90.170

 O/F=    2.20000  %FUEL= 31.250000  R,EQ.RATIO= 1.548030  PHI,EQ.RATIO= 1.548030

 THERMODYNAMIC PROPERTIES

 P, BAR            10.000   11.000   12.000   13.000   14.000   15.000   16.000   17.000
 T, K             3299.73  3310.76  3320.80  3330.01  3338.52  3346.42  3353.79  3360.69
 RHO, KG/CU M    7.8155-1 8.5769-1 9.3367-1 1.0095 0 1.0852 0 1.1608 0 1.2363 0 1.3117 0
 H, KJ/KG         -831.53  -831.53  -831.53  -831.53  -831.53  -831.53  -831.53  -831.53
 U, KJ/KG        -2111.04 -2114.05 -2116.77 -2119.27 -2121.58 -2123.71 -2125.70 -2127.56
 G, KJ/KG        -41732.9 -41747.3 -41759.5 -41769.9 -41778.8 -41786.5 -41793.2 -41798.9
 S, KJ/(KG)(K)    12.3954  12.3584  12.3247  12.2938  12.2651  12.2385  12.2135  12.1902

 M, (1/n)          21.442   21.464   21.483   21.501   21.517   21.532   21.547   21.560
 (dLV/dLP)t      -1.03015 -1.02960 -1.02910 -1.02864 -1.02821 -1.02781 -1.02744 -1.02709
 (dLV/dLT)p        1.5628   1.5510   1.5402   1.5304   1.5213   1.5130   1.5052   1.4979
 Cp, KJ/(KG)(K)    6.2179   6.1167   6.0255   5.9427   5.8670   5.7972   5.7327   5.6727
 GAMMAs            1.1392   1.1399   1.1406   1.1413   1.1419   1.1424   1.1429   1.1434
 SON VEL,M/SEC     1207.3   1209.1   1210.8   1212.3   1213.7   1215.0   1216.2   1217.3

 MASS FRACTIONS

 *CO              0.49756  0.49742  0.49728  0.49716  0.49704  0.49693  0.49682  0.49672
 *CO2             0.20223  0.20246  0.20267  0.20286  0.20305  0.20322  0.20339  0.20354
 COOH             0.00001  0.00001  0.00001  0.00001  0.00001  0.00001  0.00001  0.00001
 *H               0.00203  0.00199  0.00195  0.00192  0.00188  0.00185  0.00183  0.00180
 HCO              0.00001  0.00001  0.00001  0.00002  0.00002  0.00002  0.00002  0.00002
 HO2              0.00002  0.00002  0.00002  0.00002  0.00002  0.00002  0.00002  0.00002
 *H2              0.01310  0.01309  0.01307  0.01306  0.01305  0.01304  0.01303  0.01303
 H2O              0.24110  0.24176  0.24236  0.24292  0.24343  0.24391  0.24435  0.24477
 *O               0.00496  0.00481  0.00468  0.00455  0.00444  0.00434  0.00424  0.00415
 *OH              0.03102  0.03070  0.03041  0.03013  0.02987  0.02962  0.02939  0.02917
 *O2              0.00794  0.00773  0.00753  0.00735  0.00719  0.00703  0.00689  0.00676

  * THERMODYNAMIC PROPERTIES FITTED TO 20000.K

 NOTE. WEIGHT FRACTION OF FUEL IN TOTAL FUELS AND OF OXIDANT IN TOTAL OXIDANTS

         THERMODYNAMIC EQUILIBRIUM COMBUSTION PROPERTIES AT ASSIGNED

                                   PRESSURES

 CASE = _______________

             REACTANT                    WT FRACTION      ENERGY      TEMP
                                          (SEE NOTE)     KJ/KG-MOL      K  
 FUEL        RP-1                         1.0000000    -24717.700    298.150
 OXIDANT     O2(L)                        1.0000000    -12979.000     90.170

 O/F=    2.20000  %FUEL= 31.250000  R,EQ.RATIO= 1.548030  PHI,EQ.RATIO= 1.548030

 THERMODYNAMIC PROPERTIES

 P, BAR            18.000   19.000   20.000   21.000   22.000   23.000   24.000
 T, K             3367.19  3373.31  3379.11  3384.62  3389.85  3394.84  3399.61
 RHO, KG/CU M    1.3870 0 1.4622 0 1.5373 0 1.6124 0 1.6873 0 1.7622 0 1.8370 0
 H, KJ/KG         -831.53  -831.53  -831.53  -831.53  -831.53  -831.53  -831.53
 U, KJ/KG        -2129.30 -2130.95 -2132.50 -2133.97 -2135.37 -2136.71 -2137.98
 G, KJ/KG        -41803.9 -41808.2 -41811.9 -41815.0 -41817.7 -41820.0 -41822.0
 S, KJ/(KG)(K)    12.1681  12.1473  12.1275  12.1088  12.0909  12.0738  12.0574

 M, (1/n)          21.573   21.585   21.596   21.607   21.617   21.627   21.636
 (dLV/dLP)t      -1.02677 -1.02646 -1.02617 -1.02589 -1.02563 -1.02537 -1.02513
 (dLV/dLT)p        1.4911   1.4847   1.4787   1.4729   1.4675   1.4623   1.4574
 Cp, KJ/(KG)(K)    5.6166   5.5641   5.5147   5.4681   5.4241   5.3823   5.3426
 GAMMAs            1.1439   1.1444   1.1448   1.1452   1.1456   1.1460   1.1463
 SON VEL,M/SEC     1218.4   1219.4   1220.4   1221.3   1222.2   1223.0   1223.8

 MASS FRACTIONS

 *CO              0.49662  0.49653  0.49644  0.49636  0.49628  0.49620  0.49613
 *CO2             0.20369  0.20383  0.20397  0.20410  0.20423  0.20435  0.20446
 COOH             0.00001  0.00001  0.00001  0.00001  0.00001  0.00001  0.00001
 *H               0.00178  0.00176  0.00173  0.00171  0.00170  0.00168  0.00166
 HCO              0.00002  0.00002  0.00002  0.00002  0.00002  0.00002  0.00002
 HO2              0.00002  0.00002  0.00002  0.00002  0.00002  0.00002  0.00002
 *H2              0.01302  0.01301  0.01300  0.01300  0.01299  0.01298  0.01298
 H2O              0.24517  0.24554  0.24590  0.24623  0.24656  0.24686  0.24716
 *O               0.00407  0.00399  0.00391  0.00384  0.00378  0.00372  0.00366
 *OH              0.02896  0.02876  0.02856  0.02838  0.02820  0.02803  0.02786
 *O2              0.00664  0.00652  0.00641  0.00631  0.00621  0.00612  0.00603

  * THERMODYNAMIC PROPERTIES FITTED TO 20000.K

 NOTE. WEIGHT FRACTION OF FUEL IN TOTAL FUELS AND OF OXIDANT IN TOTAL OXIDANTS

         THERMODYNAMIC EQUILIBRIUM COMBUSTION PROPERTIES AT ASSIGNED

                                   PRESSURES

 CASE = _______________

             REACTANT                    WT FRACTION      ENERGY      TEMP
                                          (SEE NOTE)     KJ/KG-MOL      K  
 FUEL        RP-1                         1.0000000    -24717.700    298.150
 OXIDANT     O2(L)                        1.0000000    -12979.000     90.170

 O/F=    2.21000  %FUEL= 31.152648  R,EQ.RATIO= 1.541025  PHI,EQ.RATIO= 1.541025

 THERMODYNAMIC PROPERTIES

 P, BAR            10.000   11.000   12.000   13.000   14.000   15.000   16.000   17.000
 T, K             3304.02  3315.14  3325.27  3334.56  3343.15  3351.12  3358.57  3365.54
 RHO, KG/CU M    7.8204-1 8.5822-1 9.3424-1 1.0101 0 1.0859 0 1.1615 0 1.2370 0 1.3124 0
 H, KJ/KG         -830.20  -830.20  -830.20  -830.20  -830.20  -830.20  -830.20  -830.20
 U, KJ/KG        -2108.90 -2111.93 -2114.67 -2117.19 -2119.50 -2121.65 -2123.65 -2125.53
 G, KJ/KG        -41745.6 -41761.1 -41774.4 -41785.8 -41795.6 -41804.2 -41811.7 -41818.2
 S, KJ/(KG)(K)    12.3835  12.3467  12.3130  12.2821  12.2535  12.2269  12.2021  12.1787

 M, (1/n)          21.484   21.505   21.525   21.543   21.559   21.575   21.589   21.603
 (dLV/dLP)t      -1.03081 -1.03026 -1.02975 -1.02929 -1.02886 -1.02846 -1.02808 -1.02773
 (dLV/dLT)p        1.5747   1.5628   1.5519   1.5420   1.5329   1.5244   1.5166   1.5092
 Cp, KJ/(KG)(K)    6.2913   6.1891   6.0971   6.0135   5.9371   5.8666   5.8015   5.7409
 GAMMAs            1.1386   1.1393   1.1400   1.1407   1.1413   1.1418   1.1423   1.1428
 SON VEL,M/SEC     1206.6   1208.4   1210.1   1211.6   1213.0   1214.3   1215.5   1216.7

 MASS FRACTIONS

 *CO              0.49444  0.49429  0.49415  0.49401  0.49389  0.49377  0.49365  0.49355
 *CO2             0.20406  0.20430  0.20453  0.20474  0.20493  0.20512  0.20530  0.20546
 COOH             0.00001  0.00001  0.00001  0.00001  0.00001  0.00001  0.00001  0.00001
 *H               0.00203  0.00199  0.00195  0.00192  0.00189  0.00186  0.00183  0.00181
 HCO              0.00001  0.00001  0.00001  0.00002  0.00002  0.00002  0.00002  0.00002
 HO2              0.00002  0.00002  0.00002  0.00002  0.00002  0.00002  0.00002  0.00002
 *H2              0.01290  0.01288  0.01287  0.01286  0.01285  0.01284  0.01283  0.01282
 H2O              0.24129  0.24195  0.24256  0.24311  0.24363  0.24411  0.24456  0.24499
 *O               0.00516  0.00500  0.00486  0.00474  0.00462  0.00452  0.00442  0.00432
 *OH              0.03168  0.03136  0.03107  0.03079  0.03053  0.03029  0.03006  0.02983
 *O2              0.00839  0.00816  0.00796  0.00777  0.00760  0.00745  0.00730  0.00716

  * THERMODYNAMIC PROPERTIES FITTED TO 20000.K

 NOTE. WEIGHT FRACTION OF FUEL IN TOTAL FUELS AND OF OXIDANT IN TOTAL OXIDANTS

         THERMODYNAMIC EQUILIBRIUM COMBUSTION PROPERTIES AT ASSIGNED

                                   PRESSURES

 CASE = _______________

             REACTANT                    WT FRACTION      ENERGY      TEMP
                                          (SEE NOTE)     KJ/KG-MOL      K  
 FUEL        RP-1                         1.0000000    -24717.700    298.150
 OXIDANT     O2(L)                        1.0000000    -12979.000     90.170

 O/F=    2.21000  %FUEL= 31.152648  R,EQ.RATIO= 1.541025  PHI,EQ.RATIO= 1.541025

 THERMODYNAMIC PROPERTIES

 P, BAR            18.000   19.000   20.000   21.000   22.000   23.000   24.000
 T, K             3372.10  3378.29  3384.15  3389.71  3395.00  3400.05  3404.86
 RHO, KG/CU M    1.3877 0 1.4630 0 1.5381 0 1.6132 0 1.6882 0 1.7631 0 1.8379 0
 H, KJ/KG         -830.20  -830.20  -830.20  -830.20  -830.20  -830.20  -830.20
 U, KJ/KG        -2127.28 -2128.94 -2130.51 -2131.99 -2133.40 -2134.74 -2136.02
 G, KJ/KG        -41824.0 -41829.0 -41833.4 -41837.2 -41840.6 -41843.5 -41846.1
 S, KJ/(KG)(K)    12.1567  12.1360  12.1162  12.0975  12.0796  12.0626  12.0463

 M, (1/n)          21.616   21.628   21.639   21.650   21.660   21.670   21.680
 (dLV/dLP)t      -1.02740 -1.02709 -1.02680 -1.02652 -1.02625 -1.02600 -1.02575
 (dLV/dLT)p        1.5024   1.4959   1.4898   1.4840   1.4785   1.4733   1.4683
 Cp, KJ/(KG)(K)    5.6843   5.6312   5.5813   5.5342   5.4896   5.4474   5.4073
 GAMMAs            1.1433   1.1437   1.1442   1.1446   1.1449   1.1453   1.1457
 SON VEL,M/SEC     1217.8   1218.8   1219.7   1220.6   1221.5   1222.3   1223.1

 MASS FRACTIONS

 *CO              0.49344  0.49335  0.49325  0.49316  0.49308  0.49299  0.49291
 *CO2             0.20562  0.20577  0.20592  0.20606  0.20619  0.20632  0.20644
 COOH             0.00001  0.00001  0.00001  0.00001  0.00001  0.00001  0.00001
 *H               0.00178  0.00176  0.00174  0.00172  0.00170  0.00168  0.00167
 HCO              0.00002  0.00002  0.00002  0.00002  0.00002  0.00002  0.00002
 HO2              0.00002  0.00003  0.00003  0.00003  0.00003  0.00003  0.00003
 *H2              0.01281  0.01280  0.01280  0.01279  0.01278  0.01277  0.01277
 H2O              0.24538  0.24576  0.24612  0.24646  0.24678  0.24709  0.24739
 *O               0.00424  0.00416  0.00408  0.00401  0.00394  0.00388  0.00382
 *OH              0.02962  0.02942  0.02923  0.02904  0.02887  0.02869  0.02853
 *O2              0.00703  0.00691  0.00680  0.00669  0.00659  0.00649  0.00640

  * THERMODYNAMIC PROPERTIES FITTED TO 20000.K

 NOTE. WEIGHT FRACTION OF FUEL IN TOTAL FUELS AND OF OXIDANT IN TOTAL OXIDANTS