

         NASA-GLENN CHEMICAL EQUILIBRIUM PROGRAM CEA2, FEBRUARY 5, 2004
                   BY  BONNIE MCBRIDE AND SANFORD GORDON
      REFS: NASA RP-1311, PART I, 1994 AND NASA RP-1311, PART II, 1996

 *******************************************************************************

  
 ### CEA analysis performed on Thu 27-May-2021 15:45:27
  
 # Problem Type: "Assigned Enthalpy and Pressure"
  
 prob case=_______________8592 hp
  
 # Pressure (24 values):
 p,bar= 10.133, 20.266, 30.399, 40.532, 50.665, 60.798, 70.931, 81.064, 91.197, 1
 01.33, 111.463, 121.596, 131.729, 141.862, 151.995,
  
 # Oxidizer/Fuel Wt. ratio (12 values):
 o/f= 2.2, 2.21, 2.22, 2.23, 2.24, 2.25, 2.26, 2.27, 2.28, 2.29, 2.3, 2.31
  
 # You selected the following fuels and oxidizers:
 reac
 fuel RP-1              wt%=100.0000
 oxid O2(L)             wt%=100.0000
  
 # You selected these options for output:
 # short version of output
 output short
 # Proportions of any products will be expressed as Mass Fractions.
 output massf
 # Heat will be expressed as siunits
 output siunits
 # Plot parameters:
 output plot p t m gam
  
  
 # Input prepared by this script:/var/www/sites/cearun.grc.nasa.gov/cgi-bin/CEARU
 N/prepareInputFile.cgi
  
 ### IMPORTANT:  The following line is the end of your CEA input file!
 end

         THERMODYNAMIC EQUILIBRIUM COMBUSTION PROPERTIES AT ASSIGNED

                                   PRESSURES

 CASE = _______________

             REACTANT                    WT FRACTION      ENERGY      TEMP
                                          (SEE NOTE)     KJ/KG-MOL      K  
 FUEL        RP-1                         1.0000000    -24717.700    298.150
 OXIDANT     O2(L)                        1.0000000    -12979.000     90.170

 O/F=    2.20000  %FUEL= 31.250000  R,EQ.RATIO= 1.548030  PHI,EQ.RATIO= 1.548030

 THERMODYNAMIC PROPERTIES

 P, BAR            10.133   20.266   30.399   40.532   50.665   60.798   70.931   81.064
 T, K             3301.26  3380.60  3425.86  3457.26  3481.15  3500.31  3516.25  3529.85
 RHO, KG/CU M    7.9169-1 1.5573 0 2.3145 0 3.0666 0 3.8152 0 4.5611 0 5.3048 0 6.0468 0
 H, KJ/KG         -831.53  -831.53  -831.53  -831.53  -831.53  -831.53  -831.53  -831.53
 U, KJ/KG        -2111.46 -2132.90 -2144.95 -2153.24 -2159.50 -2164.49 -2168.63 -2172.14
 G, KJ/KG        -41735.0 -41812.8 -41827.7 -41822.8 -41809.3 -41791.6 -41771.9 -41751.1
 S, KJ/(KG)(K)    12.3902  12.1225  11.9667  11.8565  11.7713  11.7018  11.6432  11.5924

 M, (1/n)          21.445   21.599   21.687   21.749   21.796   21.834   21.865   21.892
 (dLV/dLP)t      -1.03008 -1.02609 -1.02381 -1.02221 -1.02100 -1.02003 -1.01922 -1.01852
 (dLV/dLT)p        1.5612   1.4771   1.4304   1.3986   1.3746   1.3556   1.3398   1.3265
 Cp, KJ/(KG)(K)    6.2038   5.5021   5.1273   4.8775   4.6929   4.5481   4.4298   4.3305
 GAMMAs            1.1393   1.1449   1.1484   1.1509   1.1529   1.1545   1.1559   1.1571
 SON VEL,M/SEC     1207.6   1220.6   1228.1   1233.3   1237.3   1240.5   1243.2   1245.5

 MASS FRACTIONS

 *CO              0.49754  0.49642  0.49570  0.49517  0.49475  0.49441  0.49411  0.49386
 *CO2             0.20226  0.20401  0.20512  0.20594  0.20659  0.20712  0.20757  0.20796
 COOH             0.00001  0.00001  0.00002  0.00002  0.00002  0.00003  0.00003  0.00003
 *H               0.00202  0.00173  0.00157  0.00146  0.00137  0.00131  0.00125  0.00121
 HCO              0.00001  0.00002  0.00003  0.00003  0.00004  0.00004  0.00005  0.00005
 HO2              0.00002  0.00002  0.00003  0.00003  0.00003  0.00003  0.00003  0.00003
 *H2              0.01310  0.01300  0.01294  0.01290  0.01287  0.01285  0.01283  0.01281
 HCOOH            0.00000  0.00000  0.00000  0.00000  0.00000  0.00001  0.00001  0.00001
 H2O              0.24120  0.24599  0.24878  0.25075  0.25226  0.25349  0.25451  0.25539
 H2O2             0.00000  0.00000  0.00000  0.00001  0.00001  0.00001  0.00001  0.00001
 *O               0.00494  0.00390  0.00334  0.00297  0.00270  0.00249  0.00232  0.00218
 *OH              0.03098  0.02851  0.02693  0.02574  0.02480  0.02401  0.02333  0.02274
 *O2              0.00791  0.00638  0.00554  0.00498  0.00456  0.00423  0.00396  0.00373

  * THERMODYNAMIC PROPERTIES FITTED TO 20000.K

 NOTE. WEIGHT FRACTION OF FUEL IN TOTAL FUELS AND OF OXIDANT IN TOTAL OXIDANTS

         THERMODYNAMIC EQUILIBRIUM COMBUSTION PROPERTIES AT ASSIGNED

                                   PRESSURES

 CASE = _______________

             REACTANT                    WT FRACTION      ENERGY      TEMP
                                          (SEE NOTE)     KJ/KG-MOL      K  
 FUEL        RP-1                         1.0000000    -24717.700    298.150
 OXIDANT     O2(L)                        1.0000000    -12979.000     90.170

 O/F=    2.20000  %FUEL= 31.250000  R,EQ.RATIO= 1.548030  PHI,EQ.RATIO= 1.548030

 THERMODYNAMIC PROPERTIES

 P, BAR            91.197   101.33   111.46   121.60   131.73   141.86   152.00
 T, K             3541.67  3552.11  3561.43  3569.84  3577.49  3584.49  3590.94
 RHO, KG/CU M    6.7872 0 7.5263 0 8.2643 0 9.0012 0 9.7373 0 1.0472 1 1.1207 1
 H, KJ/KG         -831.53  -831.53  -831.53  -831.53  -831.53  -831.53  -831.53
 U, KJ/KG        -2175.19 -2177.87 -2180.26 -2182.41 -2184.37 -2186.15 -2187.79
 G, KJ/KG        -41729.8 -41708.4 -41687.1 -41666.0 -41645.1 -41624.6 -41604.4
 S, KJ/(KG)(K)    11.5477  11.5078  11.4717  11.4387  11.4084  11.3804  11.3544

 M, (1/n)          21.916   21.937   21.955   21.972   21.987   22.001   22.014
 (dLV/dLP)t      -1.01792 -1.01739 -1.01692 -1.01649 -1.01610 -1.01574 -1.01542
 (dLV/dLT)p        1.3150   1.3049   1.2959   1.2878   1.2804   1.2738   1.2676
 Cp, KJ/(KG)(K)    4.2452   4.1709   4.1052   4.0464   3.9935   3.9453   3.9013
 GAMMAs            1.1582   1.1592   1.1601   1.1609   1.1616   1.1623   1.1630
 SON VEL,M/SEC     1247.5   1249.3   1250.9   1252.3   1253.6   1254.8   1255.9

 MASS FRACTIONS

 *CO              0.49363  0.49343  0.49324  0.49308  0.49293  0.49279  0.49265
 *CO2             0.20831  0.20861  0.20889  0.20914  0.20937  0.20958  0.20978
 COOH             0.00004  0.00004  0.00004  0.00004  0.00005  0.00005  0.00005
 *H               0.00117  0.00113  0.00110  0.00107  0.00105  0.00102  0.00100
 HCO              0.00006  0.00006  0.00006  0.00007  0.00007  0.00007  0.00008
 HO2              0.00003  0.00003  0.00003  0.00003  0.00003  0.00003  0.00003
 *H2              0.01280  0.01278  0.01277  0.01276  0.01275  0.01274  0.01273
 HCOOH            0.00001  0.00001  0.00001  0.00001  0.00001  0.00001  0.00002
 H2O              0.25616  0.25684  0.25745  0.25800  0.25850  0.25896  0.25939
 H2O2             0.00001  0.00001  0.00001  0.00001  0.00001  0.00001  0.00001
 *O               0.00206  0.00195  0.00186  0.00178  0.00171  0.00164  0.00159
 *OH              0.02221  0.02174  0.02131  0.02091  0.02055  0.02021  0.01990
 *O2              0.00354  0.00337  0.00322  0.00309  0.00297  0.00286  0.00277

  * THERMODYNAMIC PROPERTIES FITTED TO 20000.K

 NOTE. WEIGHT FRACTION OF FUEL IN TOTAL FUELS AND OF OXIDANT IN TOTAL OXIDANTS

         THERMODYNAMIC EQUILIBRIUM COMBUSTION PROPERTIES AT ASSIGNED

                                   PRESSURES

 CASE = _______________

             REACTANT                    WT FRACTION      ENERGY      TEMP
                                          (SEE NOTE)     KJ/KG-MOL      K  
 FUEL        RP-1                         1.0000000    -24717.700    298.150
 OXIDANT     O2(L)                        1.0000000    -12979.000     90.170

 O/F=    2.21000  %FUEL= 31.152648  R,EQ.RATIO= 1.541025  PHI,EQ.RATIO= 1.541025

 THERMODYNAMIC PROPERTIES

 P, BAR            10.133   20.266   30.399   40.532   50.665   60.798   70.931   81.064
 T, K             3305.56  3385.66  3431.42  3463.21  3487.40  3506.84  3523.01  3536.82
 RHO, KG/CU M    7.9219-1 1.5581 0 2.3155 0 3.0678 0 3.8165 0 4.5624 0 5.3062 0 6.0481 0
 H, KJ/KG         -830.20  -830.20  -830.20  -830.20  -830.20  -830.20  -830.20  -830.20
 U, KJ/KG        -2109.32 -2130.91 -2143.06 -2151.42 -2157.74 -2162.79 -2166.97 -2170.53
 G, KJ/KG        -41747.8 -41834.5 -41855.2 -41854.7 -41844.8 -41830.1 -41813.0 -41794.5
 S, KJ/(KG)(K)    12.3784  12.1112  11.9557  11.8458  11.7608  11.6914  11.6329  11.5823

 M, (1/n)          21.487   21.642   21.732   21.794   21.842   21.881   21.913   21.940
 (dLV/dLP)t      -1.03073 -1.02672 -1.02441 -1.02280 -1.02158 -1.02059 -1.01977 -1.01906
 (dLV/dLT)p        1.5731   1.4882   1.4410   1.4087   1.3844   1.3651   1.3492   1.3356
 Cp, KJ/(KG)(K)    6.2770   5.5685   5.1896   4.9367   4.7497   4.6029   4.4829   4.3821
 GAMMAs            1.1387   1.1443   1.1477   1.1502   1.1521   1.1537   1.1551   1.1563
 SON VEL,M/SEC     1206.9   1220.0   1227.5   1232.7   1236.7   1239.9   1242.6   1244.9

 MASS FRACTIONS

 *CO              0.49442  0.49323  0.49246  0.49190  0.49145  0.49108  0.49077  0.49050
 *CO2             0.20410  0.20596  0.20714  0.20801  0.20870  0.20927  0.20975  0.21017
 COOH             0.00001  0.00001  0.00002  0.00002  0.00002  0.00003  0.00003  0.00003
 *H               0.00203  0.00173  0.00157  0.00146  0.00138  0.00131  0.00126  0.00121
 HCO              0.00001  0.00002  0.00003  0.00003  0.00004  0.00004  0.00005  0.00005
 HO2              0.00002  0.00003  0.00003  0.00003  0.00003  0.00003  0.00003  0.00003
 *H2              0.01290  0.01279  0.01273  0.01269  0.01266  0.01263  0.01261  0.01259
 HCOOH            0.00000  0.00000  0.00000  0.00000  0.00000  0.00001  0.00001  0.00001
 H2O              0.24138  0.24621  0.24904  0.25103  0.25256  0.25379  0.25483  0.25572
 H2O2             0.00000  0.00000  0.00001  0.00001  0.00001  0.00001  0.00001  0.00001
 *O               0.00514  0.00406  0.00349  0.00311  0.00283  0.00261  0.00244  0.00229
 *OH              0.03164  0.02918  0.02759  0.02640  0.02545  0.02466  0.02398  0.02338
 *O2              0.00836  0.00677  0.00589  0.00530  0.00486  0.00452  0.00423  0.00400

  * THERMODYNAMIC PROPERTIES FITTED TO 20000.K

 NOTE. WEIGHT FRACTION OF FUEL IN TOTAL FUELS AND OF OXIDANT IN TOTAL OXIDANTS

         THERMODYNAMIC EQUILIBRIUM COMBUSTION PROPERTIES AT ASSIGNED

                                   PRESSURES

 CASE = _______________

             REACTANT                    WT FRACTION      ENERGY      TEMP
                                          (SEE NOTE)     KJ/KG-MOL      K  
 FUEL        RP-1                         1.0000000    -24717.700    298.150
 OXIDANT     O2(L)                        1.0000000    -12979.000     90.170

 O/F=    2.21000  %FUEL= 31.152648  R,EQ.RATIO= 1.541025  PHI,EQ.RATIO= 1.541025

 THERMODYNAMIC PROPERTIES

 P, BAR            91.197   101.33   111.46   121.60   131.73   141.86   152.00
 T, K             3548.83  3559.43  3568.91  3577.46  3585.25  3592.37  3598.94
 RHO, KG/CU M    6.7885 0 7.5275 0 8.2654 0 9.0023 0 9.7382 0 1.0473 1 1.1208 1
 H, KJ/KG         -830.20  -830.20  -830.20  -830.20  -830.20  -830.20  -830.20
 U, KJ/KG        -2173.61 -2176.33 -2178.75 -2180.93 -2182.91 -2184.72 -2186.38
 G, KJ/KG        -41775.3 -41755.8 -41736.2 -41716.7 -41697.3 -41678.1 -41659.2
 S, KJ/(KG)(K)    11.5376  11.4978  11.4618  11.4289  11.3987  11.3707  11.3447

 M, (1/n)          21.964   21.985   22.004   22.021   22.037   22.051   22.065
 (dLV/dLP)t      -1.01845 -1.01791 -1.01743 -1.01699 -1.01660 -1.01623 -1.01590
 (dLV/dLT)p        1.3239   1.3136   1.3044   1.2962   1.2887   1.2819   1.2756
 Cp, KJ/(KG)(K)    4.2955   4.2200   4.1532   4.0935   4.0396   3.9906   3.9458
 GAMMAs            1.1574   1.1584   1.1593   1.1601   1.1608   1.1615   1.1621
 SON VEL,M/SEC     1246.9   1248.7   1250.3   1251.8   1253.1   1254.3   1255.4

 MASS FRACTIONS

 *CO              0.49026  0.49004  0.48985  0.48967  0.48951  0.48936  0.48922
 *CO2             0.21054  0.21087  0.21116  0.21143  0.21168  0.21191  0.21212
 COOH             0.00004  0.00004  0.00004  0.00004  0.00005  0.00005  0.00005
 *H               0.00117  0.00114  0.00111  0.00108  0.00105  0.00103  0.00101
 HCO              0.00006  0.00006  0.00006  0.00007  0.00007  0.00007  0.00008
 HO2              0.00003  0.00003  0.00003  0.00003  0.00003  0.00003  0.00003
 *H2              0.01258  0.01256  0.01255  0.01254  0.01253  0.01252  0.01251
 HCOOH            0.00001  0.00001  0.00001  0.00001  0.00001  0.00001  0.00002
 H2O              0.25650  0.25719  0.25781  0.25837  0.25889  0.25936  0.25979
 H2O2             0.00001  0.00001  0.00001  0.00001  0.00001  0.00001  0.00001
 *O               0.00217  0.00206  0.00196  0.00188  0.00180  0.00174  0.00167
 *OH              0.02285  0.02237  0.02194  0.02154  0.02117  0.02083  0.02052
 *O2              0.00379  0.00362  0.00346  0.00332  0.00320  0.00308  0.00298

  * THERMODYNAMIC PROPERTIES FITTED TO 20000.K

 NOTE. WEIGHT FRACTION OF FUEL IN TOTAL FUELS AND OF OXIDANT IN TOTAL OXIDANTS

         THERMODYNAMIC EQUILIBRIUM COMBUSTION PROPERTIES AT ASSIGNED

                                   PRESSURES

 CASE = _______________

             REACTANT                    WT FRACTION      ENERGY      TEMP
                                          (SEE NOTE)     KJ/KG-MOL      K  
 FUEL        RP-1                         1.0000000    -24717.700    298.150
 OXIDANT     O2(L)                        1.0000000    -12979.000     90.170

 O/F=    2.22000  %FUEL= 31.055901  R,EQ.RATIO= 1.534084  PHI,EQ.RATIO= 1.534084

 THERMODYNAMIC PROPERTIES

 P, BAR            10.133   20.266   30.399   40.532   50.665   60.798   70.931   81.064
 T, K             3309.73  3390.56  3436.81  3468.98  3493.49  3513.18  3529.59  3543.60
 RHO, KG/CU M    7.9271-1 1.5589 0 2.3166 0 3.0690 0 3.8178 0 4.5638 0 5.3076 0 6.0496 0
 H, KJ/KG         -828.89  -828.89  -828.89  -828.89  -828.89  -828.89  -828.89  -828.89
 U, KJ/KG        -2107.17 -2128.89 -2141.13 -2149.57 -2155.95 -2161.05 -2165.28 -2168.88
 G, KJ/KG        -41759.1 -41854.3 -41880.8 -41884.6 -41878.1 -41866.5 -41851.9 -41835.7
 S, KJ/(KG)(K)    12.3666  12.0999  11.9448  11.8351  11.7502  11.6810  11.6226  11.5721

 M, (1/n)          21.528   21.685   21.776   21.839   21.888   21.927   21.960   21.988
 (dLV/dLP)t      -1.03139 -1.02735 -1.02502 -1.02340 -1.02215 -1.02115 -1.02032 -1.01961
 (dLV/dLT)p        1.5849   1.4993   1.4516   1.4189   1.3943   1.3747   1.3585   1.3448
 Cp, KJ/(KG)(K)    6.3498   5.6347   5.2518   4.9960   4.8067   4.6579   4.5363   4.4340
 GAMMAs            1.1382   1.1436   1.1470   1.1495   1.1514   1.1530   1.1544   1.1556
 SON VEL,M/SEC     1206.2   1219.3   1226.9   1232.1   1236.1   1239.3   1242.1   1244.4

 MASS FRACTIONS

 *CO              0.49132  0.49006  0.48925  0.48865  0.48817  0.48778  0.48745  0.48716
 *CO2             0.20592  0.20789  0.20915  0.21008  0.21081  0.21141  0.21192  0.21237
 COOH             0.00001  0.00001  0.00002  0.00002  0.00002  0.00003  0.00003  0.00003
 *H               0.00203  0.00174  0.00158  0.00147  0.00139  0.00132  0.00127  0.00122
 HCO              0.00001  0.00002  0.00003  0.00003  0.00004  0.00004  0.00005  0.00005
 HO2              0.00002  0.00003  0.00003  0.00003  0.00003  0.00003  0.00003  0.00003
 *H2              0.01270  0.01259  0.01253  0.01248  0.01245  0.01242  0.01240  0.01238
 HCOOH            0.00000  0.00000  0.00000  0.00000  0.00000  0.00001  0.00001  0.00001
 H2O              0.24154  0.24641  0.24926  0.25127  0.25282  0.25407  0.25513  0.25603
 H2O2             0.00000  0.00000  0.00001  0.00001  0.00001  0.00001  0.00001  0.00001
 *O               0.00533  0.00423  0.00364  0.00325  0.00296  0.00274  0.00256  0.00241
 *OH              0.03229  0.02984  0.02825  0.02707  0.02611  0.02532  0.02463  0.02403
 *O2              0.00881  0.00717  0.00626  0.00564  0.00518  0.00482  0.00452  0.00427

  * THERMODYNAMIC PROPERTIES FITTED TO 20000.K

 NOTE. WEIGHT FRACTION OF FUEL IN TOTAL FUELS AND OF OXIDANT IN TOTAL OXIDANTS

         THERMODYNAMIC EQUILIBRIUM COMBUSTION PROPERTIES AT ASSIGNED

                                   PRESSURES

 CASE = _______________

             REACTANT                    WT FRACTION      ENERGY      TEMP
                                          (SEE NOTE)     KJ/KG-MOL      K  
 FUEL        RP-1                         1.0000000    -24717.700    298.150
 OXIDANT     O2(L)                        1.0000000    -12979.000     90.170

 O/F=    2.22000  %FUEL= 31.055901  R,EQ.RATIO= 1.534084  PHI,EQ.RATIO= 1.534084

 THERMODYNAMIC PROPERTIES

 P, BAR            91.197   101.33   111.46   121.60   131.73   141.86   152.00
 T, K             3555.79  3566.57  3576.20  3584.89  3592.81  3600.06  3606.74
 RHO, KG/CU M    6.7900 0 7.5290 0 8.2668 0 9.0036 0 9.7395 0 1.0474 1 1.1209 1
 H, KJ/KG         -828.89  -828.89  -828.89  -828.89  -828.89  -828.89  -828.89
 U, KJ/KG        -2172.00 -2174.75 -2177.20 -2179.41 -2181.41 -2183.25 -2184.93
 G, KJ/KG        -41818.6 -41800.9 -41783.0 -41765.0 -41747.1 -41729.2 -41711.6
 S, KJ/(KG)(K)    11.5276  11.4878  11.4519  11.4191  11.3889  11.3610  11.3351

 M, (1/n)          22.012   22.034   22.053   22.070   22.086   22.101   22.114
 (dLV/dLP)t      -1.01899 -1.01844 -1.01795 -1.01750 -1.01710 -1.01673 -1.01639
 (dLV/dLT)p        1.3329   1.3224   1.3131   1.3047   1.2971   1.2902   1.2838
 Cp, KJ/(KG)(K)    4.3462   4.2694   4.2016   4.1409   4.0861   4.0363   3.9908
 GAMMAs            1.1566   1.1576   1.1584   1.1592   1.1600   1.1606   1.1613
 SON VEL,M/SEC     1246.4   1248.2   1249.8   1251.2   1252.6   1253.8   1254.9

 MASS FRACTIONS

 *CO              0.48690  0.48667  0.48647  0.48628  0.48611  0.48595  0.48580
 *CO2             0.21276  0.21311  0.21343  0.21371  0.21398  0.21422  0.21444
 COOH             0.00004  0.00004  0.00004  0.00004  0.00005  0.00005  0.00005
 *H               0.00118  0.00114  0.00111  0.00109  0.00106  0.00104  0.00102
 HCO              0.00006  0.00006  0.00006  0.00007  0.00007  0.00007  0.00008
 HO2              0.00003  0.00003  0.00003  0.00003  0.00003  0.00003  0.00003
 *H2              0.01236  0.01234  0.01233  0.01232  0.01231  0.01230  0.01229
 HCOOH            0.00001  0.00001  0.00001  0.00001  0.00001  0.00001  0.00002
 H2O              0.25682  0.25752  0.25815  0.25872  0.25924  0.25972  0.26016
 H2O2             0.00001  0.00001  0.00001  0.00001  0.00001  0.00001  0.00001
 *O               0.00228  0.00217  0.00207  0.00198  0.00190  0.00183  0.00177
 *OH              0.02349  0.02301  0.02257  0.02217  0.02180  0.02146  0.02113
 *O2              0.00406  0.00387  0.00371  0.00356  0.00343  0.00331  0.00320

  * THERMODYNAMIC PROPERTIES FITTED TO 20000.K

 NOTE. WEIGHT FRACTION OF FUEL IN TOTAL FUELS AND OF OXIDANT IN TOTAL OXIDANTS

         THERMODYNAMIC EQUILIBRIUM COMBUSTION PROPERTIES AT ASSIGNED

                                   PRESSURES

 CASE = _______________

             REACTANT                    WT FRACTION      ENERGY      TEMP
                                          (SEE NOTE)     KJ/KG-MOL      K  
 FUEL        RP-1                         1.0000000    -24717.700    298.150
 OXIDANT     O2(L)                        1.0000000    -12979.000     90.170

 O/F=    2.23000  %FUEL= 30.959752  R,EQ.RATIO= 1.527205  PHI,EQ.RATIO= 1.527205

 THERMODYNAMIC PROPERTIES

 P, BAR            10.133   20.266   30.399   40.532   50.665   60.798   70.931   81.064
 T, K             3313.76  3395.31  3442.05  3474.59  3499.40  3519.35  3535.98  3550.19
 RHO, KG/CU M    7.9324-1 1.5598 0 2.3177 0 3.0703 0 3.8193 0 4.5654 0 5.3093 0 6.0513 0
 H, KJ/KG         -827.57  -827.57  -827.57  -827.57  -827.57  -827.57  -827.57  -827.57
 U, KJ/KG        -2104.99 -2126.85 -2139.18 -2147.69 -2154.13 -2159.28 -2163.55 -2167.19
 G, KJ/KG        -41768.8 -41872.4 -41904.4 -41912.4 -41909.5 -41900.7 -41888.7 -41874.7
 S, KJ/(KG)(K)    12.3549  12.0887  11.9338  11.8244  11.7397  11.6706  11.6124  11.5619

 M, (1/n)          21.569   21.728   21.820   21.884   21.933   21.973   22.006   22.035
 (dLV/dLP)t      -1.03205 -1.02798 -1.02563 -1.02399 -1.02274 -1.02173 -1.02088 -1.02016
 (dLV/dLT)p        1.5967   1.5104   1.4622   1.4292   1.4043   1.3844   1.3680   1.3540
 Cp, KJ/(KG)(K)    6.4220   5.7008   5.3140   5.0554   4.8638   4.7131   4.5899   4.4862
 GAMMAs            1.1376   1.1431   1.1464   1.1488   1.1507   1.1523   1.1536   1.1548
 SON VEL,M/SEC     1205.5   1218.7   1226.2   1231.5   1235.5   1238.7   1241.5   1243.8

 MASS FRACTIONS

 *CO              0.48825  0.48691  0.48605  0.48542  0.48491  0.48450  0.48415  0.48384
 *CO2             0.20772  0.20981  0.21115  0.21213  0.21290  0.21354  0.21409  0.21456
 COOH             0.00001  0.00001  0.00002  0.00002  0.00002  0.00003  0.00003  0.00003
 *H               0.00203  0.00174  0.00158  0.00147  0.00139  0.00133  0.00127  0.00123
 HCO              0.00001  0.00002  0.00003  0.00003  0.00004  0.00004  0.00005  0.00005
 HO2              0.00002  0.00003  0.00003  0.00003  0.00003  0.00003  0.00003  0.00003
 *H2              0.01251  0.01239  0.01232  0.01228  0.01224  0.01221  0.01219  0.01217
 HCOOH            0.00000  0.00000  0.00000  0.00000  0.00000  0.00001  0.00001  0.00001
 H2O              0.24168  0.24659  0.24946  0.25149  0.25306  0.25432  0.25539  0.25630
 H2O2             0.00000  0.00000  0.00001  0.00001  0.00001  0.00001  0.00001  0.00001
 *O               0.00553  0.00440  0.00380  0.00340  0.00310  0.00287  0.00268  0.00252
 *OH              0.03294  0.03050  0.02891  0.02772  0.02677  0.02597  0.02528  0.02468
 *O2              0.00928  0.00758  0.00664  0.00600  0.00552  0.00514  0.00483  0.00457

  * THERMODYNAMIC PROPERTIES FITTED TO 20000.K

 NOTE. WEIGHT FRACTION OF FUEL IN TOTAL FUELS AND OF OXIDANT IN TOTAL OXIDANTS

         THERMODYNAMIC EQUILIBRIUM COMBUSTION PROPERTIES AT ASSIGNED

                                   PRESSURES

 CASE = _______________

             REACTANT                    WT FRACTION      ENERGY      TEMP
                                          (SEE NOTE)     KJ/KG-MOL      K  
 FUEL        RP-1                         1.0000000    -24717.700    298.150
 OXIDANT     O2(L)                        1.0000000    -12979.000     90.170

 O/F=    2.23000  %FUEL= 30.959752  R,EQ.RATIO= 1.527205  PHI,EQ.RATIO= 1.527205

 THERMODYNAMIC PROPERTIES

 P, BAR            91.197   101.33   111.46   121.60   131.73   141.86   152.00
 T, K             3562.57  3573.51  3583.29  3592.13  3600.17  3607.55  3614.35
 RHO, KG/CU M    6.7917 0 7.5307 0 8.2685 0 9.0053 0 9.7411 0 1.0476 1 1.1210 1
 H, KJ/KG         -827.57  -827.57  -827.57  -827.57  -827.57  -827.57  -827.57
 U, KJ/KG        -2170.35 -2173.13 -2175.61 -2177.85 -2179.88 -2181.74 -2183.45
 G, KJ/KG        -41859.6 -41843.7 -41827.5 -41811.0 -41794.5 -41778.1 -41761.7
 S, KJ/(KG)(K)    11.5175  11.4778  11.4420  11.4092  11.3792  11.3513  11.3254

 M, (1/n)          22.060   22.082   22.101   22.119   22.135   22.150   22.164
 (dLV/dLP)t      -1.01953 -1.01897 -1.01847 -1.01802 -1.01761 -1.01724 -1.01689
 (dLV/dLT)p        1.3420   1.3313   1.3218   1.3133   1.3056   1.2985   1.2920
 Cp, KJ/(KG)(K)    4.3971   4.3192   4.2503   4.1887   4.1330   4.0824   4.0361
 GAMMAs            1.1559   1.1568   1.1577   1.1584   1.1592   1.1598   1.1605
 SON VEL,M/SEC     1245.8   1247.6   1249.2   1250.7   1252.0   1253.2   1254.4

 MASS FRACTIONS

 *CO              0.48357  0.48332  0.48311  0.48290  0.48272  0.48255  0.48239
 *CO2             0.21497  0.21535  0.21568  0.21599  0.21627  0.21652  0.21676
 COOH             0.00004  0.00004  0.00004  0.00005  0.00005  0.00005  0.00005
 *H               0.00119  0.00115  0.00112  0.00109  0.00107  0.00104  0.00102
 HCO              0.00006  0.00006  0.00006  0.00007  0.00007  0.00007  0.00008
 HO2              0.00003  0.00004  0.00004  0.00004  0.00004  0.00004  0.00004
 *H2              0.01215  0.01213  0.01212  0.01210  0.01209  0.01208  0.01207
 HCOOH            0.00001  0.00001  0.00001  0.00001  0.00001  0.00001  0.00002
 H2O              0.25710  0.25781  0.25845  0.25903  0.25956  0.26004  0.26049
 H2O2             0.00001  0.00001  0.00001  0.00001  0.00001  0.00001  0.00001
 *O               0.00239  0.00228  0.00217  0.00208  0.00200  0.00193  0.00186
 *OH              0.02414  0.02365  0.02321  0.02280  0.02243  0.02208  0.02176
 *O2              0.00434  0.00415  0.00397  0.00382  0.00368  0.00356  0.00344

  * THERMODYNAMIC PROPERTIES FITTED TO 20000.K

 NOTE. WEIGHT FRACTION OF FUEL IN TOTAL FUELS AND OF OXIDANT IN TOTAL OXIDANTS

         THERMODYNAMIC EQUILIBRIUM COMBUSTION PROPERTIES AT ASSIGNED

                                   PRESSURES

 CASE = _______________

             REACTANT                    WT FRACTION      ENERGY      TEMP
                                          (SEE NOTE)     KJ/KG-MOL      K  
 FUEL        RP-1                         1.0000000    -24717.700    298.150
 OXIDANT     O2(L)                        1.0000000    -12979.000     90.170

 O/F=    2.24000  %FUEL= 30.864198  R,EQ.RATIO= 1.520387  PHI,EQ.RATIO= 1.520387

 THERMODYNAMIC PROPERTIES

 P, BAR            10.133   20.266   30.399   40.532   50.665   60.798   70.931   81.064
 T, K             3317.67  3399.92  3447.13  3480.03  3505.14  3525.35  3542.20  3556.61
 RHO, KG/CU M    7.9380-1 1.5607 0 2.3189 0 3.0718 0 3.8209 0 4.5671 0 5.3111 0 6.0532 0
 H, KJ/KG         -826.27  -826.27  -826.27  -826.27  -826.27  -826.27  -826.27  -826.27
 U, KJ/KG        -2102.79 -2124.78 -2137.20 -2145.78 -2152.27 -2157.47 -2161.79 -2165.47
 G, KJ/KG        -41776.9 -41888.8 -41926.2 -41938.3 -41938.7 -41932.9 -41923.3 -41911.6
 S, KJ/(KG)(K)    12.3432  12.0775  11.9229  11.8137  11.7292  11.6603  11.6021  11.5518

 M, (1/n)          21.609   21.770   21.863   21.929   21.978   22.019   22.053   22.082
 (dLV/dLP)t      -1.03270 -1.02861 -1.02625 -1.02459 -1.02332 -1.02230 -1.02144 -1.02071
 (dLV/dLT)p        1.6085   1.5215   1.4728   1.4395   1.4143   1.3942   1.3775   1.3634
 Cp, KJ/(KG)(K)    6.4937   5.7665   5.3760   5.1147   4.9209   4.7684   4.6436   4.5386
 GAMMAs            1.1371   1.1425   1.1457   1.1481   1.1500   1.1516   1.1529   1.1541
 SON VEL,M/SEC     1204.8   1218.0   1225.6   1230.8   1234.9   1238.1   1240.9   1243.2

 MASS FRACTIONS

 *CO              0.48519  0.48378  0.48287  0.48220  0.48168  0.48124  0.48086  0.48054
 *CO2             0.20952  0.21172  0.21313  0.21416  0.21498  0.21566  0.21624  0.21674
 COOH             0.00001  0.00001  0.00002  0.00002  0.00002  0.00003  0.00003  0.00003
 *H               0.00204  0.00175  0.00159  0.00148  0.00140  0.00133  0.00128  0.00123
 HCO              0.00001  0.00002  0.00003  0.00003  0.00004  0.00004  0.00005  0.00005
 HO2              0.00003  0.00003  0.00003  0.00003  0.00003  0.00004  0.00004  0.00004
 *H2              0.01232  0.01220  0.01213  0.01208  0.01204  0.01201  0.01198  0.01196
 HCOOH            0.00000  0.00000  0.00000  0.00000  0.00000  0.00001  0.00001  0.00001
 H2O              0.24180  0.24674  0.24964  0.25169  0.25327  0.25455  0.25563  0.25655
 H2O2             0.00000  0.00000  0.00001  0.00001  0.00001  0.00001  0.00001  0.00001
 *O               0.00573  0.00458  0.00396  0.00355  0.00324  0.00300  0.00281  0.00265
 *OH              0.03358  0.03115  0.02957  0.02838  0.02742  0.02662  0.02593  0.02532
 *O2              0.00977  0.00801  0.00703  0.00636  0.00587  0.00547  0.00515  0.00487

  * THERMODYNAMIC PROPERTIES FITTED TO 20000.K

 NOTE. WEIGHT FRACTION OF FUEL IN TOTAL FUELS AND OF OXIDANT IN TOTAL OXIDANTS

         THERMODYNAMIC EQUILIBRIUM COMBUSTION PROPERTIES AT ASSIGNED

                                   PRESSURES

 CASE = _______________

             REACTANT                    WT FRACTION      ENERGY      TEMP
                                          (SEE NOTE)     KJ/KG-MOL      K  
 FUEL        RP-1                         1.0000000    -24717.700    298.150
 OXIDANT     O2(L)                        1.0000000    -12979.000     90.170

 O/F=    2.24000  %FUEL= 30.864198  R,EQ.RATIO= 1.520387  PHI,EQ.RATIO= 1.520387

 THERMODYNAMIC PROPERTIES

 P, BAR            91.197   101.33   111.46   121.60   131.73   141.86   152.00
 T, K             3569.17  3580.27  3590.20  3599.18  3607.35  3614.84  3621.76
 RHO, KG/CU M    6.7936 0 7.5327 0 8.2705 0 9.0073 0 9.7430 0 1.0478 1 1.1212 1
 H, KJ/KG         -826.27  -826.27  -826.27  -826.27  -826.27  -826.27  -826.27
 U, KJ/KG        -2168.66 -2171.47 -2173.99 -2176.25 -2178.30 -2180.19 -2181.92
 G, KJ/KG        -41898.4 -41884.4 -41869.8 -41854.8 -41839.8 -41824.6 -41809.5
 S, KJ/(KG)(K)    11.5075  11.4679  11.4321  11.3994  11.3694  11.3417  11.3158

 M, (1/n)          22.107   22.129   22.149   22.167   22.184   22.199   22.213
 (dLV/dLP)t      -1.02007 -1.01951 -1.01900 -1.01855 -1.01813 -1.01775 -1.01739
 (dLV/dLT)p        1.3511   1.3403   1.3307   1.3220   1.3142   1.3070   1.3004
 Cp, KJ/(KG)(K)    4.4482   4.3693   4.2994   4.2368   4.1803   4.1289   4.0818
 GAMMAs            1.1551   1.1560   1.1569   1.1577   1.1584   1.1590   1.1596
 SON VEL,M/SEC     1245.2   1247.0   1248.7   1250.1   1251.5   1252.7   1253.8

 MASS FRACTIONS

 *CO              0.48025  0.47999  0.47976  0.47955  0.47935  0.47917  0.47901
 *CO2             0.21718  0.21757  0.21793  0.21825  0.21855  0.21882  0.21908
 COOH             0.00004  0.00004  0.00004  0.00005  0.00005  0.00005  0.00005
 *H               0.00119  0.00116  0.00113  0.00110  0.00107  0.00105  0.00103
 HCO              0.00006  0.00006  0.00006  0.00007  0.00007  0.00007  0.00008
 HO2              0.00004  0.00004  0.00004  0.00004  0.00004  0.00004  0.00004
 *H2              0.01194  0.01192  0.01191  0.01190  0.01188  0.01187  0.01186
 HCOOH            0.00001  0.00001  0.00001  0.00001  0.00001  0.00001  0.00001
 H2O              0.25736  0.25808  0.25873  0.25931  0.25985  0.26034  0.26080
 H2O2             0.00001  0.00001  0.00001  0.00001  0.00001  0.00001  0.00001
 *O               0.00251  0.00239  0.00228  0.00219  0.00211  0.00203  0.00196
 *OH              0.02478  0.02429  0.02385  0.02344  0.02306  0.02271  0.02238
 *O2              0.00464  0.00443  0.00425  0.00409  0.00394  0.00381  0.00369

  * THERMODYNAMIC PROPERTIES FITTED TO 20000.K

 NOTE. WEIGHT FRACTION OF FUEL IN TOTAL FUELS AND OF OXIDANT IN TOTAL OXIDANTS

         THERMODYNAMIC EQUILIBRIUM COMBUSTION PROPERTIES AT ASSIGNED

                                   PRESSURES

 CASE = _______________

             REACTANT                    WT FRACTION      ENERGY      TEMP
                                          (SEE NOTE)     KJ/KG-MOL      K  
 FUEL        RP-1                         1.0000000    -24717.700    298.150
 OXIDANT     O2(L)                        1.0000000    -12979.000     90.170

 O/F=    2.25000  %FUEL= 30.769231  R,EQ.RATIO= 1.513629  PHI,EQ.RATIO= 1.513629

 THERMODYNAMIC PROPERTIES

 P, BAR            10.133   20.266   30.399   40.532   50.665   60.798   70.931   81.064
 T, K             3321.46  3404.39  3452.06  3485.32  3510.72  3531.18  3548.25  3562.85
 RHO, KG/CU M    7.9437-1 1.5617 0 2.3202 0 3.0733 0 3.8226 0 4.5690 0 5.3131 0 6.0553 0
 H, KJ/KG         -824.98  -824.98  -824.98  -824.98  -824.98  -824.98  -824.98  -824.98
 U, KJ/KG        -2100.58 -2122.68 -2135.19 -2143.84 -2150.39 -2155.64 -2160.00 -2163.71
 G, KJ/KG        -41783.5 -41903.4 -41946.2 -41962.3 -41966.0 -41963.0 -41955.9 -41946.3
 S, KJ/(KG)(K)    12.3315  12.0663  11.9121  11.8031  11.7187  11.6499  11.5919  11.5417

 M, (1/n)          21.650   21.812   21.906   21.973   22.023   22.064   22.099   22.128
 (dLV/dLP)t      -1.03335 -1.02925 -1.02686 -1.02519 -1.02391 -1.02288 -1.02201 -1.02127
 (dLV/dLT)p        1.6202   1.5326   1.4835   1.4498   1.4243   1.4040   1.3871   1.3728
 Cp, KJ/(KG)(K)    6.5648   5.8319   5.4379   5.1739   4.9781   4.8238   4.6975   4.5911
 GAMMAs            1.1366   1.1419   1.1451   1.1475   1.1493   1.1509   1.1522   1.1534
 SON VEL,M/SEC     1204.1   1217.3   1224.9   1230.2   1234.2   1237.5   1240.2   1242.6

 MASS FRACTIONS

 *CO              0.48216  0.48067  0.47972  0.47901  0.47846  0.47799  0.47760  0.47726
 *CO2             0.21129  0.21361  0.21510  0.21619  0.21705  0.21777  0.21837  0.21890
 COOH             0.00001  0.00001  0.00002  0.00002  0.00003  0.00003  0.00003  0.00004
 *H               0.00204  0.00175  0.00159  0.00148  0.00140  0.00134  0.00128  0.00124
 HCO              0.00001  0.00002  0.00003  0.00003  0.00004  0.00004  0.00005  0.00005
 HO2              0.00003  0.00003  0.00003  0.00004  0.00004  0.00004  0.00004  0.00004
 *H2              0.01213  0.01201  0.01193  0.01188  0.01184  0.01181  0.01178  0.01176
 HCOOH            0.00000  0.00000  0.00000  0.00000  0.00000  0.00001  0.00001  0.00001
 H2O              0.24190  0.24687  0.24979  0.25186  0.25345  0.25475  0.25584  0.25677
 H2O2             0.00000  0.00000  0.00001  0.00001  0.00001  0.00001  0.00001  0.00001
 *O               0.00593  0.00476  0.00412  0.00370  0.00338  0.00314  0.00294  0.00277
 *OH              0.03422  0.03180  0.03022  0.02903  0.02808  0.02727  0.02658  0.02597
 *O2              0.01027  0.00846  0.00744  0.00675  0.00623  0.00582  0.00548  0.00519

  * THERMODYNAMIC PROPERTIES FITTED TO 20000.K

 NOTE. WEIGHT FRACTION OF FUEL IN TOTAL FUELS AND OF OXIDANT IN TOTAL OXIDANTS

         THERMODYNAMIC EQUILIBRIUM COMBUSTION PROPERTIES AT ASSIGNED

                                   PRESSURES

 CASE = _______________

             REACTANT                    WT FRACTION      ENERGY      TEMP
                                          (SEE NOTE)     KJ/KG-MOL      K  
 FUEL        RP-1                         1.0000000    -24717.700    298.150
 OXIDANT     O2(L)                        1.0000000    -12979.000     90.170

 O/F=    2.25000  %FUEL= 30.769231  R,EQ.RATIO= 1.513629  PHI,EQ.RATIO= 1.513629

 THERMODYNAMIC PROPERTIES

 P, BAR            91.197   101.33   111.46   121.60   131.73   141.86   152.00
 T, K             3575.58  3586.84  3596.93  3606.04  3614.34  3621.95  3628.98
 RHO, KG/CU M    6.7958 0 7.5349 0 8.2728 0 9.0095 0 9.7453 0 1.0480 1 1.1214 1
 H, KJ/KG         -824.98  -824.98  -824.98  -824.98  -824.98  -824.98  -824.98
 U, KJ/KG        -2166.94 -2169.78 -2172.32 -2174.61 -2176.69 -2178.60 -2180.35
 G, KJ/KG        -41935.1 -41922.8 -41909.8 -41896.4 -41882.7 -41868.9 -41855.0
 S, KJ/(KG)(K)    11.4975  11.4579  11.4222  11.3896  11.3597  11.3320  11.3062

 M, (1/n)          22.154   22.176   22.197   22.215   22.232   22.248   22.262
 (dLV/dLP)t      -1.02062 -1.02005 -1.01954 -1.01907 -1.01865 -1.01826 -1.01790
 (dLV/dLT)p        1.3603   1.3494   1.3396   1.3308   1.3228   1.3155   1.3088
 Cp, KJ/(KG)(K)    4.4996   4.4196   4.3487   4.2852   4.2279   4.1757   4.1279
 GAMMAs            1.1544   1.1553   1.1561   1.1569   1.1576   1.1583   1.1589
 SON VEL,M/SEC     1244.6   1246.5   1248.1   1249.6   1250.9   1252.1   1253.3

 MASS FRACTIONS

 *CO              0.47695  0.47668  0.47644  0.47621  0.47600  0.47581  0.47564
 *CO2             0.21937  0.21979  0.22016  0.22050  0.22082  0.22111  0.22138
 COOH             0.00004  0.00004  0.00004  0.00005  0.00005  0.00005  0.00005
 *H               0.00120  0.00116  0.00113  0.00110  0.00108  0.00105  0.00103
 HCO              0.00005  0.00006  0.00006  0.00007  0.00007  0.00007  0.00008
 HO2              0.00004  0.00004  0.00004  0.00004  0.00004  0.00004  0.00004
 *H2              0.01174  0.01172  0.01170  0.01169  0.01168  0.01167  0.01165
 HCOOH            0.00001  0.00001  0.00001  0.00001  0.00001  0.00001  0.00001
 H2O              0.25759  0.25832  0.25898  0.25957  0.26011  0.26061  0.26107
 H2O2             0.00001  0.00001  0.00001  0.00001  0.00001  0.00001  0.00001
 *O               0.00263  0.00250  0.00240  0.00230  0.00221  0.00213  0.00206
 *OH              0.02542  0.02493  0.02448  0.02407  0.02369  0.02334  0.02301
 *O2              0.00495  0.00473  0.00454  0.00437  0.00422  0.00408  0.00395

  * THERMODYNAMIC PROPERTIES FITTED TO 20000.K

 NOTE. WEIGHT FRACTION OF FUEL IN TOTAL FUELS AND OF OXIDANT IN TOTAL OXIDANTS

         THERMODYNAMIC EQUILIBRIUM COMBUSTION PROPERTIES AT ASSIGNED

                                   PRESSURES

 CASE = _______________

             REACTANT                    WT FRACTION      ENERGY      TEMP
                                          (SEE NOTE)     KJ/KG-MOL      K  
 FUEL        RP-1                         1.0000000    -24717.700    298.150
 OXIDANT     O2(L)                        1.0000000    -12979.000     90.170

 O/F=    2.26000  %FUEL= 30.674847  R,EQ.RATIO= 1.506932  PHI,EQ.RATIO= 1.506932

 THERMODYNAMIC PROPERTIES

 P, BAR            10.133   20.266   30.399   40.532   50.665   60.798   70.931   81.064
 T, K             3325.12  3408.73  3456.84  3490.44  3516.13  3536.84  3554.12  3568.92
 RHO, KG/CU M    7.9496-1 1.5627 0 2.3215 0 3.0748 0 3.8244 0 4.5710 0 5.3153 0 6.0576 0
 H, KJ/KG         -823.69  -823.69  -823.69  -823.69  -823.69  -823.69  -823.69  -823.69
 U, KJ/KG        -2098.34 -2120.57 -2133.16 -2141.87 -2148.48 -2153.77 -2158.17 -2161.92
 G, KJ/KG        -41788.7 -41916.4 -41964.3 -41984.5 -41991.4 -41991.1 -41986.4 -41979.0
 S, KJ/(KG)(K)    12.3199  12.0552  11.9012  11.7924  11.7082  11.6396  11.5817  11.5316

 M, (1/n)          21.690   21.854   21.949   22.016   22.068   22.109   22.144   22.174
 (dLV/dLP)t      -1.03400 -1.02988 -1.02748 -1.02580 -1.02450 -1.02346 -1.02258 -1.02183
 (dLV/dLT)p        1.6319   1.5436   1.4942   1.4601   1.4344   1.4138   1.3968   1.3822
 Cp, KJ/(KG)(K)    6.6352   5.8969   5.4995   5.2330   5.0351   4.8792   4.7515   4.6438
 GAMMAs            1.1362   1.1414   1.1446   1.1469   1.1487   1.1502   1.1515   1.1527
 SON VEL,M/SEC     1203.4   1216.6   1224.2   1229.5   1233.6   1236.9   1239.6   1242.0

 MASS FRACTIONS

 *CO              0.47915  0.47758  0.47658  0.47584  0.47526  0.47477  0.47436  0.47399
 *CO2             0.21305  0.21549  0.21705  0.21820  0.21911  0.21986  0.22050  0.22106
 COOH             0.00001  0.00001  0.00002  0.00002  0.00003  0.00003  0.00003  0.00004
 *H               0.00204  0.00175  0.00160  0.00149  0.00141  0.00134  0.00129  0.00124
 HCO              0.00001  0.00002  0.00003  0.00003  0.00004  0.00004  0.00005  0.00005
 HO2              0.00003  0.00003  0.00004  0.00004  0.00004  0.00004  0.00004  0.00004
 *H2              0.01195  0.01182  0.01175  0.01169  0.01165  0.01161  0.01159  0.01156
 HCOOH            0.00000  0.00000  0.00000  0.00000  0.00000  0.00001  0.00001  0.00001
 H2O              0.24198  0.24697  0.24992  0.25200  0.25361  0.25492  0.25602  0.25697
 H2O2             0.00000  0.00000  0.00001  0.00001  0.00001  0.00001  0.00001  0.00001
 *O               0.00614  0.00494  0.00428  0.00385  0.00353  0.00328  0.00307  0.00290
 *OH              0.03485  0.03245  0.03087  0.02968  0.02873  0.02792  0.02722  0.02661
 *O2              0.01079  0.00891  0.00786  0.00714  0.00660  0.00618  0.00582  0.00553

  * THERMODYNAMIC PROPERTIES FITTED TO 20000.K

 NOTE. WEIGHT FRACTION OF FUEL IN TOTAL FUELS AND OF OXIDANT IN TOTAL OXIDANTS

         THERMODYNAMIC EQUILIBRIUM COMBUSTION PROPERTIES AT ASSIGNED

                                   PRESSURES

 CASE = _______________

             REACTANT                    WT FRACTION      ENERGY      TEMP
                                          (SEE NOTE)     KJ/KG-MOL      K  
 FUEL        RP-1                         1.0000000    -24717.700    298.150
 OXIDANT     O2(L)                        1.0000000    -12979.000     90.170

 O/F=    2.26000  %FUEL= 30.674847  R,EQ.RATIO= 1.506932  PHI,EQ.RATIO= 1.506932

 THERMODYNAMIC PROPERTIES

 P, BAR            91.197   101.33   111.46   121.60   131.73   141.86   152.00
 T, K             3581.82  3593.24  3603.47  3612.71  3621.14  3628.87  3636.01
 RHO, KG/CU M    6.7982 0 7.5374 0 8.2753 0 9.0121 0 9.7479 0 1.0483 1 1.1217 1
 H, KJ/KG         -823.69  -823.69  -823.69  -823.69  -823.69  -823.69  -823.69
 U, KJ/KG        -2165.18 -2168.06 -2170.63 -2172.94 -2175.05 -2176.98 -2178.75
 G, KJ/KG        -41969.7 -41959.1 -41947.8 -41935.9 -41923.5 -41911.0 -41898.3
 S, KJ/(KG)(K)    11.4874  11.4480  11.4124  11.3799  11.3500  11.3223  11.2966

 M, (1/n)          22.200   22.223   22.244   22.263   22.280   22.296   22.310
 (dLV/dLP)t      -1.02118 -1.02060 -1.02008 -1.01961 -1.01918 -1.01879 -1.01842
 (dLV/dLT)p        1.3696   1.3585   1.3486   1.3397   1.3316   1.3242   1.3173
 Cp, KJ/(KG)(K)    4.5511   4.4700   4.3982   4.3339   4.2758   4.2228   4.1743
 GAMMAs            1.1537   1.1546   1.1554   1.1561   1.1568   1.1575   1.1581
 SON VEL,M/SEC     1244.0   1245.9   1247.5   1249.0   1250.3   1251.6   1252.7

 MASS FRACTIONS

 *CO              0.47367  0.47339  0.47313  0.47289  0.47267  0.47247  0.47229
 *CO2             0.22155  0.22199  0.22239  0.22275  0.22308  0.22339  0.22367
 COOH             0.00004  0.00004  0.00004  0.00005  0.00005  0.00005  0.00006
 *H               0.00120  0.00117  0.00114  0.00111  0.00108  0.00106  0.00104
 HCO              0.00005  0.00006  0.00006  0.00007  0.00007  0.00007  0.00008
 HO2              0.00004  0.00004  0.00004  0.00004  0.00004  0.00004  0.00004
 *H2              0.01154  0.01152  0.01150  0.01149  0.01148  0.01146  0.01145
 HCOOH            0.00001  0.00001  0.00001  0.00001  0.00001  0.00001  0.00001
 H2O              0.25779  0.25853  0.25920  0.25980  0.26035  0.26085  0.26132
 H2O2             0.00001  0.00001  0.00001  0.00001  0.00001  0.00001  0.00001
 *O               0.00275  0.00262  0.00251  0.00241  0.00232  0.00224  0.00216
 *OH              0.02607  0.02557  0.02512  0.02471  0.02432  0.02397  0.02364
 *O2              0.00527  0.00504  0.00484  0.00467  0.00450  0.00436  0.00422

  * THERMODYNAMIC PROPERTIES FITTED TO 20000.K

 NOTE. WEIGHT FRACTION OF FUEL IN TOTAL FUELS AND OF OXIDANT IN TOTAL OXIDANTS

         THERMODYNAMIC EQUILIBRIUM COMBUSTION PROPERTIES AT ASSIGNED

                                   PRESSURES

 CASE = _______________

             REACTANT                    WT FRACTION      ENERGY      TEMP
                                          (SEE NOTE)     KJ/KG-MOL      K  
 FUEL        RP-1                         1.0000000    -24717.700    298.150
 OXIDANT     O2(L)                        1.0000000    -12979.000     90.170

 O/F=    2.27000  %FUEL= 30.581040  R,EQ.RATIO= 1.500294  PHI,EQ.RATIO= 1.500294

 THERMODYNAMIC PROPERTIES

 P, BAR            10.133   20.266   30.399   40.532   50.665   60.798   70.931   81.064
 T, K             3328.67  3412.92  3461.48  3495.42  3521.39  3542.33  3559.83  3574.81
 RHO, KG/CU M    7.9557-1 1.5637 0 2.3229 0 3.0765 0 3.8263 0 4.5731 0 5.3176 0 6.0600 0
 H, KJ/KG         -822.41  -822.41  -822.41  -822.41  -822.41  -822.41  -822.41  -822.41
 U, KJ/KG        -2096.09 -2118.43 -2131.11 -2139.88 -2146.54 -2151.88 -2156.32 -2160.10
 G, KJ/KG        -41792.5 -41927.8 -41980.8 -42004.8 -42014.9 -42017.3 -42015.0 -42009.6
 S, KJ/(KG)(K)    12.3083  12.0440  11.8904  11.7818  11.6978  11.6293  11.5715  11.5215

 M, (1/n)          21.729   21.895   21.992   22.060   22.112   22.154   22.189   22.220
 (dLV/dLP)t      -1.03465 -1.03050 -1.02809 -1.02640 -1.02510 -1.02404 -1.02316 -1.02240
 (dLV/dLT)p        1.6435   1.5547   1.5048   1.4705   1.4445   1.4237   1.4064   1.3917
 Cp, KJ/(KG)(K)    6.7049   5.9615   5.5608   5.2919   5.0921   4.9346   4.8054   4.6965
 GAMMAs            1.1357   1.1408   1.1440   1.1463   1.1481   1.1496   1.1509   1.1520
 SON VEL,M/SEC     1202.7   1216.0   1223.6   1228.9   1233.0   1236.3   1239.0   1241.4

 MASS FRACTIONS

 *CO              0.47616  0.47452  0.47347  0.47269  0.47208  0.47157  0.47113  0.47075
 *CO2             0.21480  0.21736  0.21899  0.22019  0.22115  0.22194  0.22261  0.22320
 COOH             0.00001  0.00001  0.00002  0.00002  0.00003  0.00003  0.00003  0.00004
 *H               0.00204  0.00176  0.00160  0.00149  0.00141  0.00134  0.00129  0.00125
 HCO              0.00001  0.00002  0.00003  0.00003  0.00004  0.00004  0.00005  0.00005
 HO2              0.00003  0.00003  0.00004  0.00004  0.00004  0.00004  0.00004  0.00004
 *H2              0.01178  0.01164  0.01156  0.01150  0.01146  0.01142  0.01139  0.01137
 HCOOH            0.00000  0.00000  0.00000  0.00000  0.00000  0.00001  0.00001  0.00001
 H2O              0.24204  0.24706  0.25002  0.25212  0.25375  0.25507  0.25618  0.25713
 H2O2             0.00000  0.00001  0.00001  0.00001  0.00001  0.00001  0.00001  0.00001
 *O               0.00634  0.00512  0.00445  0.00401  0.00367  0.00342  0.00320  0.00303
 *OH              0.03548  0.03309  0.03152  0.03033  0.02937  0.02857  0.02787  0.02726
 *O2              0.01132  0.00939  0.00830  0.00756  0.00700  0.00655  0.00618  0.00587

  * THERMODYNAMIC PROPERTIES FITTED TO 20000.K

 NOTE. WEIGHT FRACTION OF FUEL IN TOTAL FUELS AND OF OXIDANT IN TOTAL OXIDANTS

         THERMODYNAMIC EQUILIBRIUM COMBUSTION PROPERTIES AT ASSIGNED

                                   PRESSURES

 CASE = _______________

             REACTANT                    WT FRACTION      ENERGY      TEMP
                                          (SEE NOTE)     KJ/KG-MOL      K  
 FUEL        RP-1                         1.0000000    -24717.700    298.150
 OXIDANT     O2(L)                        1.0000000    -12979.000     90.170

 O/F=    2.27000  %FUEL= 30.581040  R,EQ.RATIO= 1.500294  PHI,EQ.RATIO= 1.500294

 THERMODYNAMIC PROPERTIES

 P, BAR            91.197   101.33   111.46   121.60   131.73   141.86   152.00
 T, K             3587.88  3599.46  3609.83  3619.21  3627.76  3635.61  3642.86
 RHO, KG/CU M    6.8008 0 7.5401 0 8.2781 0 9.0150 0 9.7508 0 1.0486 1 1.1220 1
 H, KJ/KG         -822.41  -822.41  -822.41  -822.41  -822.41  -822.41  -822.41
 U, KJ/KG        -2163.39 -2166.30 -2168.90 -2171.24 -2173.37 -2175.32 -2177.11
 G, KJ/KG        -42002.2 -41993.4 -41983.6 -41973.1 -41962.2 -41950.9 -41939.4
 S, KJ/(KG)(K)    11.4775  11.4381  11.4025  11.3701  11.3403  11.3127  11.2870

 M, (1/n)          22.246   22.270   22.291   22.310   22.327   22.343   22.358
 (dLV/dLP)t      -1.02174 -1.02115 -1.02063 -1.02015 -1.01971 -1.01931 -1.01894
 (dLV/dLT)p        1.3790   1.3677   1.3577   1.3486   1.3404   1.3329   1.3260
 Cp, KJ/(KG)(K)    4.6027   4.5207   4.4479   4.3827   4.3238   4.2702   4.2210
 GAMMAs            1.1530   1.1539   1.1547   1.1554   1.1561   1.1568   1.1573
 SON VEL,M/SEC     1243.4   1245.3   1246.9   1248.4   1249.7   1251.0   1252.1

 MASS FRACTIONS

 *CO              0.47041  0.47011  0.46984  0.46959  0.46936  0.46915  0.46895
 *CO2             0.22372  0.22418  0.22460  0.22498  0.22533  0.22565  0.22596
 COOH             0.00004  0.00004  0.00005  0.00005  0.00005  0.00005  0.00006
 *H               0.00121  0.00117  0.00114  0.00111  0.00109  0.00106  0.00104
 HCO              0.00005  0.00006  0.00006  0.00007  0.00007  0.00007  0.00008
 HO2              0.00004  0.00004  0.00004  0.00004  0.00005  0.00005  0.00005
 *H2              0.01135  0.01133  0.01131  0.01129  0.01128  0.01126  0.01125
 HCOOH            0.00001  0.00001  0.00001  0.00001  0.00001  0.00001  0.00001
 H2O              0.25797  0.25872  0.25939  0.26000  0.26055  0.26107  0.26154
 H2O2             0.00001  0.00001  0.00001  0.00001  0.00001  0.00001  0.00001
 *O               0.00288  0.00274  0.00263  0.00252  0.00243  0.00235  0.00227
 *OH              0.02671  0.02621  0.02576  0.02534  0.02496  0.02460  0.02426
 *O2              0.00560  0.00537  0.00516  0.00497  0.00481  0.00465  0.00451

  * THERMODYNAMIC PROPERTIES FITTED TO 20000.K

 NOTE. WEIGHT FRACTION OF FUEL IN TOTAL FUELS AND OF OXIDANT IN TOTAL OXIDANTS

         THERMODYNAMIC EQUILIBRIUM COMBUSTION PROPERTIES AT ASSIGNED

                                   PRESSURES

 CASE = _______________

             REACTANT                    WT FRACTION      ENERGY      TEMP
                                          (SEE NOTE)     KJ/KG-MOL      K  
 FUEL        RP-1                         1.0000000    -24717.700    298.150
 OXIDANT     O2(L)                        1.0000000    -12979.000     90.170

 O/F=    2.28000  %FUEL= 30.487805  R,EQ.RATIO= 1.493713  PHI,EQ.RATIO= 1.493713

 THERMODYNAMIC PROPERTIES

 P, BAR            10.133   20.266   30.399   40.532   50.665   60.798   70.931   81.064
 T, K             3332.11  3416.99  3465.97  3500.25  3526.49  3547.67  3565.37  3580.54
 RHO, KG/CU M    7.9619-1 1.5648 0 2.3243 0 3.0783 0 3.8283 0 4.5754 0 5.3200 0 6.0626 0
 H, KJ/KG         -821.14  -821.14  -821.14  -821.14  -821.14  -821.14  -821.14  -821.14
 U, KJ/KG        -2093.83 -2116.28 -2129.03 -2137.86 -2144.57 -2149.95 -2154.43 -2158.25
 G, KJ/KG        -41795.0 -41937.6 -41995.5 -42023.3 -42036.6 -42041.6 -42041.6 -42038.2
 S, KJ/(KG)(K)    12.2967  12.0330  11.8796  11.7712  11.6874  11.6190  11.5613  11.5114

 M, (1/n)          21.769   21.936   22.034   22.103   22.155   22.198   22.234   22.265
 (dLV/dLP)t      -1.03529 -1.03113 -1.02871 -1.02700 -1.02569 -1.02463 -1.02374 -1.02297
 (dLV/dLT)p        1.6550   1.5657   1.5154   1.4808   1.4546   1.4336   1.4162   1.4013
 Cp, KJ/(KG)(K)    6.7739   6.0256   5.6219   5.3506   5.1490   4.9899   4.8594   4.7493
 GAMMAs            1.1353   1.1403   1.1434   1.1457   1.1475   1.1489   1.1502   1.1513
 SON VEL,M/SEC     1202.0   1215.3   1222.9   1228.2   1232.3   1235.6   1238.4   1240.7

 MASS FRACTIONS

 *CO              0.47319  0.47147  0.47038  0.46956  0.46892  0.46838  0.46793  0.46753
 *CO2             0.21652  0.21920  0.22091  0.22217  0.22317  0.22400  0.22471  0.22532
 COOH             0.00001  0.00001  0.00002  0.00002  0.00003  0.00003  0.00003  0.00004
 *H               0.00204  0.00176  0.00160  0.00149  0.00141  0.00135  0.00129  0.00125
 HCO              0.00001  0.00002  0.00003  0.00003  0.00004  0.00004  0.00005  0.00005
 HO2              0.00003  0.00004  0.00004  0.00004  0.00004  0.00004  0.00004  0.00005
 *H2              0.01160  0.01146  0.01138  0.01132  0.01127  0.01124  0.01121  0.01118
 HCOOH            0.00000  0.00000  0.00000  0.00000  0.00000  0.00001  0.00001  0.00001
 H2O              0.24208  0.24713  0.25011  0.25222  0.25386  0.25519  0.25631  0.25728
 H2O2             0.00000  0.00001  0.00001  0.00001  0.00001  0.00001  0.00001  0.00001
 *O               0.00655  0.00530  0.00462  0.00416  0.00382  0.00356  0.00334  0.00316
 *OH              0.03610  0.03372  0.03216  0.03097  0.03002  0.02921  0.02851  0.02790
 *O2              0.01186  0.00988  0.00875  0.00798  0.00740  0.00694  0.00656  0.00623

  * THERMODYNAMIC PROPERTIES FITTED TO 20000.K

 NOTE. WEIGHT FRACTION OF FUEL IN TOTAL FUELS AND OF OXIDANT IN TOTAL OXIDANTS

         THERMODYNAMIC EQUILIBRIUM COMBUSTION PROPERTIES AT ASSIGNED

                                   PRESSURES

 CASE = _______________

             REACTANT                    WT FRACTION      ENERGY      TEMP
                                          (SEE NOTE)     KJ/KG-MOL      K  
 FUEL        RP-1                         1.0000000    -24717.700    298.150
 OXIDANT     O2(L)                        1.0000000    -12979.000     90.170

 O/F=    2.28000  %FUEL= 30.487805  R,EQ.RATIO= 1.493713  PHI,EQ.RATIO= 1.493713

 THERMODYNAMIC PROPERTIES

 P, BAR            91.197   101.33   111.46   121.60   131.73   141.86   152.00
 T, K             3593.78  3605.51  3616.02  3625.53  3634.20  3642.17  3649.52
 RHO, KG/CU M    6.8035 0 7.5430 0 8.2811 0 9.0181 0 9.7540 0 1.0489 1 1.1223 1
 H, KJ/KG         -821.14  -821.14  -821.14  -821.14  -821.14  -821.14  -821.14
 U, KJ/KG        -2161.58 -2164.51 -2167.13 -2169.50 -2171.65 -2173.62 -2175.44
 G, KJ/KG        -42032.7 -42025.6 -42017.4 -42008.3 -41998.7 -41988.7 -41978.4
 S, KJ/(KG)(K)    11.4675  11.4282  11.3927  11.3603  11.3306  11.3030  11.2774

 M, (1/n)          22.292   22.316   22.337   22.356   22.374   22.391   22.406
 (dLV/dLP)t      -1.02230 -1.02171 -1.02118 -1.02069 -1.02025 -1.01985 -1.01947
 (dLV/dLT)p        1.3884   1.3770   1.3668   1.3577   1.3493   1.3417   1.3346
 Cp, KJ/(KG)(K)    4.6544   4.5714   4.4978   4.4318   4.3721   4.3177   4.2679
 GAMMAs            1.1523   1.1532   1.1540   1.1547   1.1554   1.1560   1.1566
 SON VEL,M/SEC     1242.8   1244.6   1246.3   1247.8   1249.2   1250.4   1251.6

 MASS FRACTIONS

 *CO              0.46718  0.46686  0.46657  0.46631  0.46607  0.46585  0.46564
 *CO2             0.22587  0.22636  0.22680  0.22720  0.22757  0.22791  0.22823
 COOH             0.00004  0.00004  0.00005  0.00005  0.00005  0.00005  0.00006
 *H               0.00121  0.00118  0.00114  0.00112  0.00109  0.00107  0.00105
 HCO              0.00005  0.00006  0.00006  0.00007  0.00007  0.00007  0.00007
 HO2              0.00005  0.00005  0.00005  0.00005  0.00005  0.00005  0.00005
 *H2              0.01116  0.01114  0.01112  0.01110  0.01109  0.01107  0.01106
 HCOOH            0.00001  0.00001  0.00001  0.00001  0.00001  0.00001  0.00001
 H2O              0.25812  0.25888  0.25955  0.26017  0.26073  0.26125  0.26173
 H2O2             0.00001  0.00001  0.00001  0.00001  0.00001  0.00001  0.00001
 *O               0.00300  0.00287  0.00275  0.00264  0.00255  0.00246  0.00238
 *OH              0.02735  0.02685  0.02639  0.02598  0.02559  0.02523  0.02489
 *O2              0.00595  0.00571  0.00549  0.00530  0.00512  0.00496  0.00481

  * THERMODYNAMIC PROPERTIES FITTED TO 20000.K

 NOTE. WEIGHT FRACTION OF FUEL IN TOTAL FUELS AND OF OXIDANT IN TOTAL OXIDANTS

         THERMODYNAMIC EQUILIBRIUM COMBUSTION PROPERTIES AT ASSIGNED

                                   PRESSURES

 CASE = _______________

             REACTANT                    WT FRACTION      ENERGY      TEMP
                                          (SEE NOTE)     KJ/KG-MOL      K  
 FUEL        RP-1                         1.0000000    -24717.700    298.150
 OXIDANT     O2(L)                        1.0000000    -12979.000     90.170

 O/F=    2.29000  %FUEL= 30.395137  R,EQ.RATIO= 1.487191  PHI,EQ.RATIO= 1.487191

 THERMODYNAMIC PROPERTIES

 P, BAR            10.133   20.266   30.399   40.532   50.665   60.798   70.931   81.064
 T, K             3335.43  3420.93  3470.33  3504.93  3531.44  3552.85  3570.75  3586.10
 RHO, KG/CU M    7.9683-1 1.5659 0 2.3258 0 3.0801 0 3.8304 0 4.5777 0 5.3226 0 6.0654 0
 H, KJ/KG         -819.88  -819.88  -819.88  -819.88  -819.88  -819.88  -819.88  -819.88
 U, KJ/KG        -2091.55 -2114.10 -2126.93 -2135.82 -2142.58 -2148.00 -2152.52 -2156.37
 G, KJ/KG        -41796.1 -41945.9 -42008.6 -42040.1 -42056.4 -42064.0 -42066.3 -42065.0
 S, KJ/(KG)(K)    12.2851  12.0219  11.8688  11.7607  11.6770  11.6088  11.5512  11.5014

 M, (1/n)          21.808   21.977   22.076   22.145   22.199   22.242   22.278   22.310
 (dLV/dLP)t      -1.03593 -1.03176 -1.02932 -1.02761 -1.02629 -1.02521 -1.02432 -1.02354
 (dLV/dLT)p        1.6665   1.5766   1.5261   1.4912   1.4647   1.4435   1.4259   1.4109
 Cp, KJ/(KG)(K)    6.8421   6.0891   5.6825   5.4091   5.2057   5.0451   4.9133   4.8020
 GAMMAs            1.1348   1.1398   1.1429   1.1451   1.1469   1.1483   1.1496   1.1507
 SON VEL,M/SEC     1201.3   1214.6   1222.2   1227.6   1231.7   1235.0   1237.7   1240.1

 MASS FRACTIONS

 *CO              0.47024  0.46845  0.46731  0.46646  0.46578  0.46522  0.46474  0.46433
 *CO2             0.21824  0.22103  0.22282  0.22414  0.22519  0.22605  0.22679  0.22744
 COOH             0.00001  0.00001  0.00002  0.00002  0.00003  0.00003  0.00003  0.00004
 *H               0.00204  0.00176  0.00160  0.00150  0.00141  0.00135  0.00130  0.00125
 HCO              0.00001  0.00002  0.00003  0.00003  0.00004  0.00004  0.00005  0.00005
 HO2              0.00003  0.00004  0.00004  0.00004  0.00004  0.00005  0.00005  0.00005
 *H2              0.01143  0.01129  0.01120  0.01114  0.01109  0.01105  0.01102  0.01099
 HCOOH            0.00000  0.00000  0.00000  0.00000  0.00000  0.00001  0.00001  0.00001
 H2O              0.24210  0.24717  0.25017  0.25230  0.25395  0.25529  0.25642  0.25739
 H2O2             0.00000  0.00001  0.00001  0.00001  0.00001  0.00001  0.00001  0.00001
 *O               0.00676  0.00548  0.00479  0.00432  0.00398  0.00370  0.00348  0.00329
 *OH              0.03671  0.03435  0.03279  0.03161  0.03066  0.02985  0.02915  0.02854
 *O2              0.01242  0.01038  0.00922  0.00842  0.00782  0.00734  0.00695  0.00661

  * THERMODYNAMIC PROPERTIES FITTED TO 20000.K

 NOTE. WEIGHT FRACTION OF FUEL IN TOTAL FUELS AND OF OXIDANT IN TOTAL OXIDANTS

         THERMODYNAMIC EQUILIBRIUM COMBUSTION PROPERTIES AT ASSIGNED

                                   PRESSURES

 CASE = _______________

             REACTANT                    WT FRACTION      ENERGY      TEMP
                                          (SEE NOTE)     KJ/KG-MOL      K  
 FUEL        RP-1                         1.0000000    -24717.700    298.150
 OXIDANT     O2(L)                        1.0000000    -12979.000     90.170

 O/F=    2.29000  %FUEL= 30.395137  R,EQ.RATIO= 1.487191  PHI,EQ.RATIO= 1.487191

 THERMODYNAMIC PROPERTIES

 P, BAR            91.197   101.33   111.46   121.60   131.73   141.86   152.00
 T, K             3599.50  3611.38  3622.03  3631.67  3640.47  3648.54  3656.01
 RHO, KG/CU M    6.8065 0 7.5461 0 8.2844 0 9.0215 0 9.7575 0 1.0493 1 1.1227 1
 H, KJ/KG         -819.88  -819.88  -819.88  -819.88  -819.88  -819.88  -819.88
 U, KJ/KG        -2159.73 -2162.69 -2165.34 -2167.73 -2169.90 -2171.90 -2173.74
 G, KJ/KG        -42061.2 -42055.8 -42049.1 -42041.5 -42033.2 -42024.4 -42015.2
 S, KJ/(KG)(K)    11.4575  11.4183  11.3829  11.3506  11.3209  11.2934  11.2679

 M, (1/n)          22.337   22.361   22.383   22.403   22.421   22.437   22.453
 (dLV/dLP)t      -1.02287 -1.02227 -1.02173 -1.02124 -1.02079 -1.02038 -1.02001
 (dLV/dLT)p        1.3978   1.3863   1.3760   1.3667   1.3583   1.3505   1.3434
 Cp, KJ/(KG)(K)    4.7062   4.6222   4.5477   4.4809   4.4205   4.3654   4.3149
 GAMMAs            1.1516   1.1525   1.1533   1.1540   1.1547   1.1553   1.1559
 SON VEL,M/SEC     1242.2   1244.0   1245.7   1247.2   1248.6   1249.8   1251.0

 MASS FRACTIONS

 *CO              0.46396  0.46362  0.46332  0.46305  0.46280  0.46256  0.46234
 *CO2             0.22801  0.22852  0.22898  0.22941  0.22979  0.23015  0.23049
 COOH             0.00004  0.00004  0.00005  0.00005  0.00005  0.00005  0.00006
 *H               0.00121  0.00118  0.00115  0.00112  0.00110  0.00107  0.00105
 HCO              0.00005  0.00006  0.00006  0.00006  0.00007  0.00007  0.00007
 HO2              0.00005  0.00005  0.00005  0.00005  0.00005  0.00005  0.00005
 *H2              0.01097  0.01095  0.01093  0.01091  0.01090  0.01088  0.01087
 HCOOH            0.00001  0.00001  0.00001  0.00001  0.00001  0.00001  0.00001
 H2O              0.25825  0.25901  0.25970  0.26032  0.26089  0.26141  0.26190
 H2O2             0.00001  0.00001  0.00001  0.00001  0.00001  0.00001  0.00001
 *O               0.00313  0.00299  0.00287  0.00276  0.00266  0.00257  0.00249
 *OH              0.02798  0.02748  0.02703  0.02661  0.02622  0.02586  0.02552
 *O2              0.00632  0.00606  0.00584  0.00563  0.00545  0.00528  0.00513

  * THERMODYNAMIC PROPERTIES FITTED TO 20000.K

 NOTE. WEIGHT FRACTION OF FUEL IN TOTAL FUELS AND OF OXIDANT IN TOTAL OXIDANTS

         THERMODYNAMIC EQUILIBRIUM COMBUSTION PROPERTIES AT ASSIGNED

                                   PRESSURES

 CASE = _______________

             REACTANT                    WT FRACTION      ENERGY      TEMP
                                          (SEE NOTE)     KJ/KG-MOL      K  
 FUEL        RP-1                         1.0000000    -24717.700    298.150
 OXIDANT     O2(L)                        1.0000000    -12979.000     90.170

 O/F=    2.30000  %FUEL= 30.303030  R,EQ.RATIO= 1.480724  PHI,EQ.RATIO= 1.480724

 THERMODYNAMIC PROPERTIES

 P, BAR            10.133   20.266   30.399   40.532   50.665   60.798   70.931   81.064
 T, K             3338.65  3424.74  3474.55  3509.46  3536.24  3557.87  3575.97  3591.50
 RHO, KG/CU M    7.9748-1 1.5670 0 2.3273 0 3.0820 0 3.8326 0 4.5802 0 5.3253 0 6.0684 0
 H, KJ/KG         -818.62  -818.62  -818.62  -818.62  -818.62  -818.62  -818.62  -818.62
 U, KJ/KG        -2089.25 -2111.91 -2124.81 -2133.75 -2140.56 -2146.03 -2150.58 -2154.46
 G, KJ/KG        -41796.0 -41952.8 -42020.2 -42055.3 -42074.5 -42084.6 -42089.1 -42089.8
 S, KJ/(KG)(K)    12.2736  12.0109  11.8581  11.7501  11.6666  11.5985  11.5411  11.4914

 M, (1/n)          21.847   22.018   22.117   22.188   22.242   22.286   22.322   22.354
 (dLV/dLP)t      -1.03656 -1.03238 -1.02994 -1.02821 -1.02688 -1.02580 -1.02490 -1.02412
 (dLV/dLT)p        1.6778   1.5875   1.5366   1.5015   1.4748   1.4534   1.4357   1.4205
 Cp, KJ/(KG)(K)    6.9095   6.1521   5.7427   5.4672   5.2621   5.1001   4.9671   4.8547
 GAMMAs            1.1344   1.1394   1.1424   1.1446   1.1463   1.1478   1.1490   1.1501
 SON VEL,M/SEC     1200.6   1213.9   1221.5   1226.9   1231.0   1234.3   1237.1   1239.5

 MASS FRACTIONS

 *CO              0.46732  0.46545  0.46426  0.46337  0.46267  0.46208  0.46158  0.46114
 *CO2             0.21993  0.22285  0.22471  0.22609  0.22718  0.22809  0.22886  0.22954
 COOH             0.00001  0.00001  0.00002  0.00002  0.00003  0.00003  0.00003  0.00004
 *H               0.00204  0.00176  0.00160  0.00150  0.00142  0.00135  0.00130  0.00126
 HCO              0.00001  0.00002  0.00003  0.00003  0.00004  0.00004  0.00005  0.00005
 HO2              0.00003  0.00004  0.00004  0.00004  0.00005  0.00005  0.00005  0.00005
 *H2              0.01127  0.01112  0.01103  0.01096  0.01092  0.01088  0.01084  0.01081
 HCOOH            0.00000  0.00000  0.00000  0.00000  0.00000  0.00001  0.00001  0.00001
 H2O              0.24211  0.24720  0.25022  0.25236  0.25402  0.25537  0.25651  0.25749
 H2O2             0.00000  0.00001  0.00001  0.00001  0.00001  0.00001  0.00001  0.00001
 *O               0.00697  0.00567  0.00496  0.00448  0.00413  0.00385  0.00362  0.00343
 *OH              0.03731  0.03498  0.03342  0.03225  0.03129  0.03049  0.02979  0.02917
 *O2              0.01299  0.01089  0.00970  0.00888  0.00826  0.00776  0.00735  0.00700

  * THERMODYNAMIC PROPERTIES FITTED TO 20000.K

 NOTE. WEIGHT FRACTION OF FUEL IN TOTAL FUELS AND OF OXIDANT IN TOTAL OXIDANTS

         THERMODYNAMIC EQUILIBRIUM COMBUSTION PROPERTIES AT ASSIGNED

                                   PRESSURES

 CASE = _______________

             REACTANT                    WT FRACTION      ENERGY      TEMP
                                          (SEE NOTE)     KJ/KG-MOL      K  
 FUEL        RP-1                         1.0000000    -24717.700    298.150
 OXIDANT     O2(L)                        1.0000000    -12979.000     90.170

 O/F=    2.30000  %FUEL= 30.303030  R,EQ.RATIO= 1.480724  PHI,EQ.RATIO= 1.480724

 THERMODYNAMIC PROPERTIES

 P, BAR            91.197   101.33   111.46   121.60   131.73   141.86   152.00
 T, K             3605.06  3617.09  3627.88  3637.64  3646.56  3654.74  3662.31
 RHO, KG/CU M    6.8097 0 7.5495 0 8.2879 0 9.0251 0 9.7613 0 1.0497 1 1.1231 1
 H, KJ/KG         -818.62  -818.62  -818.62  -818.62  -818.62  -818.62  -818.62
 U, KJ/KG        -2157.85 -2160.84 -2163.51 -2165.93 -2168.13 -2170.14 -2172.00
 G, KJ/KG        -42087.9 -42084.0 -42078.8 -42072.6 -42065.6 -42058.1 -42050.0
 S, KJ/(KG)(K)    11.4476  11.4085  11.3731  11.3409  11.3112  11.2838  11.2583

 M, (1/n)          22.382   22.406   22.429   22.449   22.467   22.484   22.500
 (dLV/dLP)t      -1.02344 -1.02283 -1.02229 -1.02179 -1.02134 -1.02093 -1.02054
 (dLV/dLT)p        1.4073   1.3956   1.3852   1.3758   1.3673   1.3595   1.3522
 Cp, KJ/(KG)(K)    4.7578   4.6730   4.5977   4.5301   4.4690   4.4133   4.3622
 GAMMAs            1.1510   1.1519   1.1526   1.1534   1.1540   1.1546   1.1552
 SON VEL,M/SEC     1241.6   1243.4   1245.1   1246.6   1247.9   1249.2   1250.4

 MASS FRACTIONS

 *CO              0.46076  0.46041  0.46010  0.45981  0.45954  0.45930  0.45907
 *CO2             0.23014  0.23067  0.23116  0.23160  0.23201  0.23238  0.23273
 COOH             0.00004  0.00004  0.00005  0.00005  0.00005  0.00006  0.00006
 *H               0.00122  0.00118  0.00115  0.00112  0.00110  0.00108  0.00105
 HCO              0.00005  0.00006  0.00006  0.00006  0.00007  0.00007  0.00007
 HO2              0.00005  0.00005  0.00005  0.00005  0.00005  0.00005  0.00005
 *H2              0.01079  0.01077  0.01075  0.01073  0.01071  0.01070  0.01068
 HCOOH            0.00001  0.00001  0.00001  0.00001  0.00001  0.00001  0.00001
 H2O              0.25835  0.25912  0.25981  0.26044  0.26102  0.26155  0.26204
 H2O2             0.00001  0.00001  0.00001  0.00001  0.00001  0.00001  0.00001
 *O               0.00327  0.00312  0.00300  0.00288  0.00278  0.00269  0.00260
 *OH              0.02862  0.02812  0.02766  0.02724  0.02685  0.02649  0.02614
 *O2              0.00670  0.00643  0.00620  0.00598  0.00579  0.00562  0.00546

  * THERMODYNAMIC PROPERTIES FITTED TO 20000.K

 NOTE. WEIGHT FRACTION OF FUEL IN TOTAL FUELS AND OF OXIDANT IN TOTAL OXIDANTS

         THERMODYNAMIC EQUILIBRIUM COMBUSTION PROPERTIES AT ASSIGNED

                                   PRESSURES

 CASE = _______________

             REACTANT                    WT FRACTION      ENERGY      TEMP
                                          (SEE NOTE)     KJ/KG-MOL      K  
 FUEL        RP-1                         1.0000000    -24717.700    298.150
 OXIDANT     O2(L)                        1.0000000    -12979.000     90.170

 O/F=    2.31000  %FUEL= 30.211480  R,EQ.RATIO= 1.474314  PHI,EQ.RATIO= 1.474314

 THERMODYNAMIC PROPERTIES

 P, BAR            10.133   20.266   30.399   40.532   50.665   60.798   70.931   81.064
 T, K             3341.76  3428.43  3478.64  3513.86  3540.89  3562.74  3581.04  3596.74
 RHO, KG/CU M    7.9814-1 1.5682 0 2.3289 0 3.0840 0 3.8349 0 4.5828 0 5.3282 0 6.0715 0
 H, KJ/KG         -817.38  -817.38  -817.38  -817.38  -817.38  -817.38  -817.38  -817.38
 U, KJ/KG        -2086.95 -2109.70 -2122.66 -2131.66 -2138.52 -2144.02 -2148.61 -2152.53
 G, KJ/KG        -41794.6 -41958.2 -42030.1 -42068.8 -42090.9 -42103.5 -42110.1 -42112.8
 S, KJ/(KG)(K)    12.2622  11.9999  11.8474  11.7396  11.6563  11.5883  11.5309  11.4813

 M, (1/n)          21.885   22.058   22.158   22.230   22.284   22.329   22.366   22.398
 (dLV/dLP)t      -1.03719 -1.03300 -1.03055 -1.02881 -1.02748 -1.02639 -1.02548 -1.02469
 (dLV/dLT)p        1.6891   1.5984   1.5472   1.5118   1.4849   1.4634   1.4454   1.4301
 Cp, KJ/(KG)(K)    6.9760   6.2145   5.8024   5.5249   5.3183   5.1549   5.0207   4.9073
 GAMMAs            1.1340   1.1389   1.1419   1.1440   1.1458   1.1472   1.1484   1.1494
 SON VEL,M/SEC     1199.9   1213.2   1220.9   1226.2   1230.3   1233.7   1236.4   1238.8

 MASS FRACTIONS

 *CO              0.46441  0.46247  0.46123  0.46030  0.45957  0.45896  0.45844  0.45798
 *CO2             0.22161  0.22465  0.22659  0.22802  0.22916  0.23011  0.23092  0.23162
 COOH             0.00001  0.00001  0.00002  0.00002  0.00003  0.00003  0.00003  0.00004
 *H               0.00204  0.00176  0.00161  0.00150  0.00142  0.00136  0.00130  0.00126
 HCO              0.00001  0.00002  0.00003  0.00003  0.00004  0.00004  0.00004  0.00005
 HO2              0.00003  0.00004  0.00004  0.00005  0.00005  0.00005  0.00005  0.00005
 *H2              0.01111  0.01095  0.01086  0.01079  0.01074  0.01070  0.01067  0.01064
 HCOOH            0.00000  0.00000  0.00000  0.00000  0.00000  0.00001  0.00001  0.00001
 H2O              0.24210  0.24721  0.25024  0.25239  0.25406  0.25542  0.25657  0.25756
 H2O2             0.00000  0.00001  0.00001  0.00001  0.00001  0.00001  0.00001  0.00001
 *O               0.00718  0.00586  0.00514  0.00465  0.00429  0.00400  0.00377  0.00357
 *OH              0.03791  0.03559  0.03405  0.03288  0.03192  0.03112  0.03042  0.02980
 *O2              0.01358  0.01142  0.01020  0.00935  0.00871  0.00819  0.00777  0.00740

  * THERMODYNAMIC PROPERTIES FITTED TO 20000.K

 NOTE. WEIGHT FRACTION OF FUEL IN TOTAL FUELS AND OF OXIDANT IN TOTAL OXIDANTS

         THERMODYNAMIC EQUILIBRIUM COMBUSTION PROPERTIES AT ASSIGNED

                                   PRESSURES

 CASE = _______________

             REACTANT                    WT FRACTION      ENERGY      TEMP
                                          (SEE NOTE)     KJ/KG-MOL      K  
 FUEL        RP-1                         1.0000000    -24717.700    298.150
 OXIDANT     O2(L)                        1.0000000    -12979.000     90.170

 O/F=    2.31000  %FUEL= 30.211480  R,EQ.RATIO= 1.474314  PHI,EQ.RATIO= 1.474314

 THERMODYNAMIC PROPERTIES

 P, BAR            91.197   101.33   111.46   121.60   131.73   141.86   152.00
 T, K             3610.46  3622.63  3633.55  3643.44  3652.47  3660.77  3668.44
 RHO, KG/CU M    6.8130 0 7.5530 0 8.2916 0 9.0290 0 9.7654 0 1.0501 1 1.1235 1
 H, KJ/KG         -817.38  -817.38  -817.38  -817.38  -817.38  -817.38  -817.38
 U, KJ/KG        -2155.94 -2158.96 -2161.66 -2164.10 -2166.32 -2168.35 -2170.23
 G, KJ/KG        -42112.6 -42110.4 -42106.6 -42101.8 -42096.1 -42089.7 -42082.8
 S, KJ/(KG)(K)    11.4376  11.3986  11.3633  11.3312  11.3016  11.2742  11.2488

 M, (1/n)          22.426   22.451   22.474   22.494   22.513   22.530   22.546
 (dLV/dLP)t      -1.02401 -1.02340 -1.02285 -1.02235 -1.02189 -1.02147 -1.02108
 (dLV/dLT)p        1.4168   1.4050   1.3945   1.3850   1.3763   1.3684   1.3611
 Cp, KJ/(KG)(K)    4.8095   4.7237   4.6476   4.5794   4.5176   4.4612   4.4095
 GAMMAs            1.1504   1.1512   1.1520   1.1527   1.1534   1.1540   1.1545
 SON VEL,M/SEC     1240.9   1242.8   1244.4   1245.9   1247.3   1248.6   1249.8

 MASS FRACTIONS

 *CO              0.45758  0.45722  0.45689  0.45659  0.45631  0.45605  0.45581
 *CO2             0.23225  0.23281  0.23331  0.23378  0.23420  0.23460  0.23496
 COOH             0.00004  0.00004  0.00005  0.00005  0.00005  0.00006  0.00006
 *H               0.00122  0.00118  0.00115  0.00113  0.00110  0.00108  0.00106
 HCO              0.00005  0.00006  0.00006  0.00006  0.00007  0.00007  0.00007
 HO2              0.00005  0.00005  0.00006  0.00006  0.00006  0.00006  0.00006
 *H2              0.01061  0.01059  0.01057  0.01055  0.01053  0.01051  0.01050
 HCOOH            0.00001  0.00001  0.00001  0.00001  0.00001  0.00001  0.00001
 H2O              0.25843  0.25921  0.25991  0.26054  0.26112  0.26166  0.26215
 H2O2             0.00001  0.00001  0.00001  0.00001  0.00001  0.00002  0.00002
 *O               0.00340  0.00325  0.00312  0.00301  0.00290  0.00281  0.00272
 *OH              0.02925  0.02875  0.02829  0.02787  0.02748  0.02711  0.02677
 *O2              0.00709  0.00681  0.00657  0.00635  0.00615  0.00597  0.00580

  * THERMODYNAMIC PROPERTIES FITTED TO 20000.K

 NOTE. WEIGHT FRACTION OF FUEL IN TOTAL FUELS AND OF OXIDANT IN TOTAL OXIDANTS